1bcu_decoys.pdbqt
 OpenBabel10162310053D

 27 29  0  0  0  0  0  0  0  0999 V2000
    8.8780   23.3190   49.5370 C   0  0  0  0  0  0  0  0  0  0  0  0
    9.6160   23.7040   48.4960 C   0  0  0  0  0  0  0  0  0  0  0  0
   10.6540   22.8650   47.9420 C   0  0  0  0  0  0  0  0  0  0  0  0
   10.8800   21.6370   48.5350 C   0  0  0  0  0  0  0  0  0  0  0  0
    9.8040   18.1800   51.6760 C   0  0  0  0  0  0  0  0  0  0  0  0
    9.0490   17.6490   52.7070 C   0  0  0  0  0  0  0  0  0  0  0  0
    7.9960   18.4680   53.2710 C   0  0  0  0  0  0  0  0  0  0  0  0
    7.7460   19.6990   52.8230 C   0  0  0  0  0  0  0  0  0  0  0  0
    8.3100   21.5440   51.2130 C   0  0  0  0  0  0  0  0  0  0  0  0
   10.3030   19.9700   50.1620 N   0  0  0  0  0  0  0  0  0  0  0  0
   10.1230   21.2180   49.6080 C   0  0  0  0  0  0  0  0  0  0  0  0
    8.5170   20.2810   51.7440 C   0  0  0  0  0  0  0  0  0  0  0  0
    9.0730   22.0360   50.1670 C   0  0  0  0  0  0  0  0  0  0  0  0
    9.5610   19.4490   51.1990 C   0  0  0  0  0  0  0  0  0  0  0  0
    9.2670   16.3970   53.1700 N   0  0  0  0  0  0  0  0  0  0  0  0
    8.1130   23.9850   49.9190 H   0  0  0  0  0  0  0  0  0  0  0  0
    9.4310   24.6750   48.0520 H   0  0  0  0  0  0  0  0  0  0  0  0
   11.6630   20.9930   48.1500 H   0  0  0  0  0  0  0  0  0  0  0  0
   10.5990   17.5870   51.2360 H   0  0  0  0  0  0  0  0  0  0  0  0
    7.3940   18.0690   54.0800 H   0  0  0  0  0  0  0  0  0  0  0  0
    6.9490   20.2770   53.2770 H   0  0  0  0  0  0  0  0  0  0  0  0
    7.5260   22.1660   51.6300 H   0  0  0  0  0  0  0  0  0  0  0  0
   10.0190   15.8210   52.7640 H   0  0  0  0  0  0  0  0  0  0  0  0
    8.6810   16.0190   53.9290 H   0  0  0  0  0  0  0  0  0  0  0  0
   11.3170   23.2500   46.8280 N   0  0  0  0  0  0  0  0  0  0  0  0
   11.6830   22.5420   46.1750 H   0  0  0  0  0  0  0  0  0  0  0  0
   11.4560   24.2520   46.6310 H   0  0  0  0  0  0  0  0  0  0  0  0
  1 16  1  0  0  0  0
  1 13  1  0  0  0  0
  2  1  2  0  0  0  0
  3  2  1  0  0  0  0
  3  4  2  0  0  0  0
  4 11  1  0  0  0  0
  5  6  1  0  0  0  0
  6 15  1  0  0  0  0
  6  7  2  0  0  0  0
  7 20  1  0  0  0  0
  8  7  1  0  0  0  0
  8 21  1  0  0  0  0
  9 22  1  0  0  0  0
  9 12  1  0  0  0  0
 10 14  1  0  0  0  0
 11 10  2  0  0  0  0
 11 13  1  0  0  0  0
 12  8  2  0  0  0  0
 13  9  2  0  0  0  0
 14  5  2  0  0  0  0
 14 12  1  0  0  0  0
 15 24  1  0  0  0  0
 17  2  1  0  0  0  0
 18  4  1  0  0  0  0
 19  5  1  0  0  0  0
 23 15  1  0  0  0  0
 25  3  1  0  0  0  0
 26 25  1  0  0  0  0
 27 25  1  0  0  0  0
M  END
>  <MODEL>
1

>  <REMARK>
 VINA RESULT:      -7.5      0.000      0.000
  1 active torsions:
  status: ('A' for Active; 'I' for Inactive)
    1  A    between atoms: C3_3  and  N15_15 

>  <TORSDO>
F 1

$$$$
1bcu_decoys.pdbqt
 OpenBabel10162310053D

 27 29  0  0  0  0  0  0  0  0999 V2000
    7.7650   19.7140   52.7710 C   0  0  0  0  0  0  0  0  0  0  0  0
    8.0440   18.5010   53.2450 C   0  0  0  0  0  0  0  0  0  0  0  0
    9.0580   17.6590   52.6500 C   0  0  0  0  0  0  0  0  0  0  0  0
    9.7350   18.1450   51.5470 C   0  0  0  0  0  0  0  0  0  0  0  0
   10.7930   21.6010   48.3990 C   0  0  0  0  0  0  0  0  0  0  0  0
   10.6390   22.8710   47.8730 C   0  0  0  0  0  0  0  0  0  0  0  0
    9.6370   23.7350   48.4610 C   0  0  0  0  0  0  0  0  0  0  0  0
    8.8740   23.3360   49.4800 C   0  0  0  0  0  0  0  0  0  0  0  0
    8.2720   21.5310   51.1200 C   0  0  0  0  0  0  0  0  0  0  0  0
   10.1800   19.9110   49.9850 N   0  0  0  0  0  0  0  0  0  0  0  0
    9.4650   19.4000   51.0450 C   0  0  0  0  0  0  0  0  0  0  0  0
    9.0130   22.0140   50.0540 C   0  0  0  0  0  0  0  0  0  0  0  0
    8.4660   20.2590   51.6340 C   0  0  0  0  0  0  0  0  0  0  0  0
   10.0160   21.1700   49.4520 C   0  0  0  0  0  0  0  0  0  0  0  0
   11.4100   23.3110   46.8520 N   0  0  0  0  0  0  0  0  0  0  0  0
    6.9940   20.3050   53.2500 H   0  0  0  0  0  0  0  0  0  0  0  0
    7.4940   18.1330   54.1040 H   0  0  0  0  0  0  0  0  0  0  0  0
   10.4900   17.5290   51.0690 H   0  0  0  0  0  0  0  0  0  0  0  0
   11.5370   20.9340   47.9770 H   0  0  0  0  0  0  0  0  0  0  0  0
    9.5020   24.7340   48.0620 H   0  0  0  0  0  0  0  0  0  0  0  0
    8.1340   24.0160   49.8870 H   0  0  0  0  0  0  0  0  0  0  0  0
    7.5170   22.1680   51.5660 H   0  0  0  0  0  0  0  0  0  0  0  0
   12.1210   22.6900   46.4380 H   0  0  0  0  0  0  0  0  0  0  0  0
   11.2870   24.2670   46.4870 H   0  0  0  0  0  0  0  0  0  0  0  0
    9.3780   16.4740   53.2170 N   0  0  0  0  0  0  0  0  0  0  0  0
   10.0590   16.4400   53.9890 H   0  0  0  0  0  0  0  0  0  0  0  0
    8.9400   15.6060   52.8780 H   0  0  0  0  0  0  0  0  0  0  0  0
  1  2  1  0  0  0  0
  1 16  1  0  0  0  0
  2 17  1  0  0  0  0
  3 25  1  0  0  0  0
  3  2  2  0  0  0  0
  4  3  1  0  0  0  0
  5 14  1  0  0  0  0
  6  5  2  0  0  0  0
  6  7  1  0  0  0  0
  7  8  2  0  0  0  0
  8 21  1  0  0  0  0
  8 12  1  0  0  0  0
  9 22  1  0  0  0  0
  9 13  1  0  0  0  0
 10 11  1  0  0  0  0
 11  4  2  0  0  0  0
 11 13  1  0  0  0  0
 12  9  2  0  0  0  0
 13  1  2  0  0  0  0
 14 10  2  0  0  0  0
 14 12  1  0  0  0  0
 15  6  1  0  0  0  0
 18  4  1  0  0  0  0
 19  5  1  0  0  0  0
 20  7  1  0  0  0  0
 23 15  1  0  0  0  0
 24 15  1  0  0  0  0
 25 26  1  0  0  0  0
 27 25  1  0  0  0  0
M  END
>  <MODEL>
2

>  <REMARK>
 VINA RESULT:      -7.4      0.130      5.666
  1 active torsions:
  status: ('A' for Active; 'I' for Inactive)
    1  A    between atoms: C3_3  and  N15_15 

>  <TORSDO>
F 1

$$$$
1bcu_decoys.pdbqt
 OpenBabel10162310053D

 27 29  0  0  0  0  0  0  0  0999 V2000
   11.0390   21.5230   47.9490 C   0  0  0  0  0  0  0  0  0  0  0  0
   11.0560   22.6740   47.2780 C   0  0  0  0  0  0  0  0  0  0  0  0
   10.2120   23.7890   47.6460 C   0  0  0  0  0  0  0  0  0  0  0  0
    9.3600   23.6270   48.7220 C   0  0  0  0  0  0  0  0  0  0  0  0
    7.6530   21.1400   52.4470 C   0  0  0  0  0  0  0  0  0  0  0  0
    7.6090   20.0210   53.2590 C   0  0  0  0  0  0  0  0  0  0  0  0
    8.4540   18.8960   52.9150 C   0  0  0  0  0  0  0  0  0  0  0  0
    9.2570   18.9190   51.8500 C   0  0  0  0  0  0  0  0  0  0  0  0
   10.1440   20.1840   49.8700 C   0  0  0  0  0  0  0  0  0  0  0  0
    8.5300   22.3030   50.5440 N   0  0  0  0  0  0  0  0  0  0  0  0
    9.3320   22.4460   49.4330 C   0  0  0  0  0  0  0  0  0  0  0  0
    9.3270   20.0760   50.9830 C   0  0  0  0  0  0  0  0  0  0  0  0
   10.1760   21.3280   49.0890 C   0  0  0  0  0  0  0  0  0  0  0  0
    8.4760   21.1840   51.3430 C   0  0  0  0  0  0  0  0  0  0  0  0
    6.8180   19.9750   54.3570 N   0  0  0  0  0  0  0  0  0  0  0  0
   11.6880   20.7160   47.6320 H   0  0  0  0  0  0  0  0  0  0  0  0
   11.7230   22.7780   46.4290 H   0  0  0  0  0  0  0  0  0  0  0  0
    8.7040   24.4410   49.0120 H   0  0  0  0  0  0  0  0  0  0  0  0
    7.0300   21.9960   52.6830 H   0  0  0  0  0  0  0  0  0  0  0  0
    8.4330   18.0100   53.5400 H   0  0  0  0  0  0  0  0  0  0  0  0
    9.8700   18.0530   51.6300 H   0  0  0  0  0  0  0  0  0  0  0  0
   10.7790   19.3470   49.6010 H   0  0  0  0  0  0  0  0  0  0  0  0
    6.2200   20.7790   54.5940 H   0  0  0  0  0  0  0  0  0  0  0  0
    6.8150   19.1360   54.9540 H   0  0  0  0  0  0  0  0  0  0  0  0
   10.3260   24.9710   46.9990 N   0  0  0  0  0  0  0  0  0  0  0  0
    9.6480   25.7240   47.1800 H   0  0  0  0  0  0  0  0  0  0  0  0
   11.0920   25.1180   46.3260 H   0  0  0  0  0  0  0  0  0  0  0  0
  1 13  1  0  0  0  0
  2  3  1  0  0  0  0
  2  1  2  0  0  0  0
  3  4  2  0  0  0  0
  4 18  1  0  0  0  0
  4 11  1  0  0  0  0
  5 19  1  0  0  0  0
  5  6  1  0  0  0  0
  6 15  1  0  0  0  0
  7  6  2  0  0  0  0
  7 20  1  0  0  0  0
  8  7  1  0  0  0  0
  9 12  1  0  0  0  0
 10 14  1  0  0  0  0
 11 10  2  0  0  0  0
 12 14  1  0  0  0  0
 12  8  2  0  0  0  0
 13 11  1  0  0  0  0
 13  9  2  0  0  0  0
 14  5  2  0  0  0  0
 15 23  1  0  0  0  0
 15 24  1  0  0  0  0
 16  1  1  0  0  0  0
 17  2  1  0  0  0  0
 21  8  1  0  0  0  0
 22  9  1  0  0  0  0
 25 26  1  0  0  0  0
 25  3  1  0  0  0  0
 27 25  1  0  0  0  0
M  END
>  <MODEL>
3

>  <REMARK>
 VINA RESULT:      -7.0      1.613      2.491
  1 active torsions:
  status: ('A' for Active; 'I' for Inactive)
    1  A    between atoms: C3_3  and  N15_15 

>  <TORSDO>
F 1

$$$$
1bcu_decoys.pdbqt
 OpenBabel10162310053D

 27 29  0  0  0  0  0  0  0  0999 V2000
   10.3680   20.4320   49.7390 C   0  0  0  0  0  0  0  0  0  0  0  0
   10.6450   21.3900   48.8560 C   0  0  0  0  0  0  0  0  0  0  0  0
    9.8640   22.6030   48.7710 C   0  0  0  0  0  0  0  0  0  0  0  0
    8.7940   22.7460   49.6340 C   0  0  0  0  0  0  0  0  0  0  0  0
    6.0950   21.3000   53.3210 C   0  0  0  0  0  0  0  0  0  0  0  0
    5.7650   20.4080   54.3260 C   0  0  0  0  0  0  0  0  0  0  0  0
    6.5410   19.1900   54.4360 C   0  0  0  0  0  0  0  0  0  0  0  0
    7.5470   18.9180   53.6040 C   0  0  0  0  0  0  0  0  0  0  0  0
    8.9570   19.6320   51.6500 C   0  0  0  0  0  0  0  0  0  0  0  0
    7.4680   21.9340   51.4620 N   0  0  0  0  0  0  0  0  0  0  0  0
    8.4950   21.7680   50.5590 C   0  0  0  0  0  0  0  0  0  0  0  0
    7.9180   19.8340   52.5440 C   0  0  0  0  0  0  0  0  0  0  0  0
    9.2700   20.5570   50.6680 C   0  0  0  0  0  0  0  0  0  0  0  0
    7.1310   21.0390   52.4520 C   0  0  0  0  0  0  0  0  0  0  0  0
    4.7620   20.6640   55.1980 N   0  0  0  0  0  0  0  0  0  0  0  0
   10.9810   19.5390   49.7620 H   0  0  0  0  0  0  0  0  0  0  0  0
   11.4820   21.2550   48.1790 H   0  0  0  0  0  0  0  0  0  0  0  0
    8.1800   23.6390   49.5820 H   0  0  0  0  0  0  0  0  0  0  0  0
    5.5290   22.2200   53.2170 H   0  0  0  0  0  0  0  0  0  0  0  0
    6.2980   18.4790   55.2180 H   0  0  0  0  0  0  0  0  0  0  0  0
    8.0990   17.9930   53.7220 H   0  0  0  0  0  0  0  0  0  0  0  0
    9.5420   18.7230   51.7220 H   0  0  0  0  0  0  0  0  0  0  0  0
    4.2150   21.5320   55.1120 H   0  0  0  0  0  0  0  0  0  0  0  0
    4.5460   19.9900   55.9470 H   0  0  0  0  0  0  0  0  0  0  0  0
   10.2340   23.5920   47.9260 N   0  0  0  0  0  0  0  0  0  0  0  0
    9.5490   24.3050   47.6350 H   0  0  0  0  0  0  0  0  0  0  0  0
   11.2010   23.6330   47.5720 H   0  0  0  0  0  0  0  0  0  0  0  0
  1 16  1  0  0  0  0
  1 13  1  0  0  0  0
  2  1  2  0  0  0  0
  3  2  1  0  0  0  0
  3  4  2  0  0  0  0
  4 11  1  0  0  0  0
  5  6  1  0  0  0  0
  6  7  2  0  0  0  0
  6 15  1  0  0  0  0
  7 20  1  0  0  0  0
  8 21  1  0  0  0  0
  8  7  1  0  0  0  0
  9 22  1  0  0  0  0
  9 12  1  0  0  0  0
 10 14  1  0  0  0  0
 11 13  1  0  0  0  0
 11 10  2  0  0  0  0
 12  8  2  0  0  0  0
 13  9  2  0  0  0  0
 14 12  1  0  0  0  0
 14  5  2  0  0  0  0
 15 24  1  0  0  0  0
 17  2  1  0  0  0  0
 18  4  1  0  0  0  0
 19  5  1  0  0  0  0
 23 15  1  0  0  0  0
 25  3  1  0  0  0  0
 26 25  1  0  0  0  0
 27 25  1  0  0  0  0
M  END
>  <MODEL>
4

>  <REMARK>
 VINA RESULT:      -6.6      2.280      3.145
  1 active torsions:
  status: ('A' for Active; 'I' for Inactive)
    1  A    between atoms: C3_3  and  N15_15 

>  <TORSDO>
F 1

$$$$
1bcu_decoys.pdbqt
 OpenBabel10162310053D

 27 29  0  0  0  0  0  0  0  0999 V2000
    8.6220   22.7480   50.0540 C   0  0  0  0  0  0  0  0  0  0  0  0
    9.8520   22.5150   49.5960 C   0  0  0  0  0  0  0  0  0  0  0  0
   10.2570   21.2120   49.1180 C   0  0  0  0  0  0  0  0  0  0  0  0
    9.3280   20.1900   49.1610 C   0  0  0  0  0  0  0  0  0  0  0  0
    4.9110   18.4990   49.9370 C   0  0  0  0  0  0  0  0  0  0  0  0
    3.5890   18.6480   50.3180 C   0  0  0  0  0  0  0  0  0  0  0  0
    3.1580   19.9470   50.7900 C   0  0  0  0  0  0  0  0  0  0  0  0
    3.9960   20.9830   50.8620 C   0  0  0  0  0  0  0  0  0  0  0  0
    6.3100   21.8890   50.5000 C   0  0  0  0  0  0  0  0  0  0  0  0
    7.1030   19.4130   49.6100 N   0  0  0  0  0  0  0  0  0  0  0  0
    8.0490   20.4130   49.6250 C   0  0  0  0  0  0  0  0  0  0  0  0
    5.3840   20.8590   50.4690 C   0  0  0  0  0  0  0  0  0  0  0  0
    7.6220   21.7090   50.0930 C   0  0  0  0  0  0  0  0  0  0  0  0
    5.7910   19.5570   50.0040 C   0  0  0  0  0  0  0  0  0  0  0  0
    2.7110   17.6210   50.2380 N   0  0  0  0  0  0  0  0  0  0  0  0
    8.3670   23.7420   50.4040 H   0  0  0  0  0  0  0  0  0  0  0  0
   10.5700   23.3270   49.5810 H   0  0  0  0  0  0  0  0  0  0  0  0
    9.6090   19.1980   48.8240 H   0  0  0  0  0  0  0  0  0  0  0  0
    5.2590   17.5360   49.5800 H   0  0  0  0  0  0  0  0  0  0  0  0
    2.1250   20.0820   51.0930 H   0  0  0  0  0  0  0  0  0  0  0  0
    3.6290   21.9370   51.2240 H   0  0  0  0  0  0  0  0  0  0  0  0
    5.9990   22.8650   50.8540 H   0  0  0  0  0  0  0  0  0  0  0  0
    3.0260   16.6990   49.9020 H   0  0  0  0  0  0  0  0  0  0  0  0
    1.7280   17.7610   50.5140 H   0  0  0  0  0  0  0  0  0  0  0  0
   11.4830   21.0390   48.5750 N   0  0  0  0  0  0  0  0  0  0  0  0
   11.5870   20.9630   47.5530 H   0  0  0  0  0  0  0  0  0  0  0  0
   12.3130   20.9830   49.1820 H   0  0  0  0  0  0  0  0  0  0  0  0
  1 13  1  0  0  0  0
  1 16  1  0  0  0  0
  2  1  2  0  0  0  0
  3  4  2  0  0  0  0
  3  2  1  0  0  0  0
  4 11  1  0  0  0  0
  5 14  2  0  0  0  0
  5  6  1  0  0  0  0
  6  7  2  0  0  0  0
  7  8  1  0  0  0  0
  7 20  1  0  0  0  0
  8 21  1  0  0  0  0
  9 22  1  0  0  0  0
 10 11  2  0  0  0  0
 10 14  1  0  0  0  0
 11 13  1  0  0  0  0
 12  9  1  0  0  0  0
 12  8  2  0  0  0  0
 13  9  2  0  0  0  0
 14 12  1  0  0  0  0
 15  6  1  0  0  0  0
 15 24  1  0  0  0  0
 17  2  1  0  0  0  0
 18  4  1  0  0  0  0
 19  5  1  0  0  0  0
 23 15  1  0  0  0  0
 25  3  1  0  0  0  0
 25 27  1  0  0  0  0
 26 25  1  0  0  0  0
M  END
>  <MODEL>
5

>  <REMARK>
 VINA RESULT:      -6.4      3.451      3.861
  1 active torsions:
  status: ('A' for Active; 'I' for Inactive)
    1  A    between atoms: C3_3  and  N15_15 

>  <TORSDO>
F 1

$$$$
1bcu_decoys.pdbqt
 OpenBabel10162310053D

 27 29  0  0  0  0  0  0  0  0999 V2000
    8.5360   18.4730   51.1120 C   0  0  0  0  0  0  0  0  0  0  0  0
    9.3120   18.9090   50.1200 C   0  0  0  0  0  0  0  0  0  0  0  0
    9.7350   20.2890   50.0290 C   0  0  0  0  0  0  0  0  0  0  0  0
    9.2980   21.1660   51.0030 C   0  0  0  0  0  0  0  0  0  0  0  0
    7.0390   22.1620   55.1110 C   0  0  0  0  0  0  0  0  0  0  0  0
    6.2970   21.8030   56.2230 C   0  0  0  0  0  0  0  0  0  0  0  0
    5.8720   20.4240   56.3410 C   0  0  0  0  0  0  0  0  0  0  0  0
    6.1750   19.5120   55.4160 C   0  0  0  0  0  0  0  0  0  0  0  0
    7.3190   18.9670   53.2470 C   0  0  0  0  0  0  0  0  0  0  0  0
    8.1130   21.5900   53.0460 N   0  0  0  0  0  0  0  0  0  0  0  0
    8.5000   20.7320   52.0400 C   0  0  0  0  0  0  0  0  0  0  0  0
    6.9510   19.8570   54.2430 C   0  0  0  0  0  0  0  0  0  0  0  0
    8.0780   19.3570   52.1560 C   0  0  0  0  0  0  0  0  0  0  0  0
    7.3620   21.2350   54.1450 C   0  0  0  0  0  0  0  0  0  0  0  0
    5.9900   22.7010   57.1870 N   0  0  0  0  0  0  0  0  0  0  0  0
    8.2430   17.4310   51.1350 H   0  0  0  0  0  0  0  0  0  0  0  0
    9.6360   18.2080   49.3590 H   0  0  0  0  0  0  0  0  0  0  0  0
    9.5860   22.2100   50.9510 H   0  0  0  0  0  0  0  0  0  0  0  0
    7.3700   23.1890   54.9980 H   0  0  0  0  0  0  0  0  0  0  0  0
    5.2900   20.1240   57.2060 H   0  0  0  0  0  0  0  0  0  0  0  0
    5.8320   18.4920   55.5450 H   0  0  0  0  0  0  0  0  0  0  0  0
    7.0030   17.9330   53.3240 H   0  0  0  0  0  0  0  0  0  0  0  0
    6.2970   23.6810   57.0960 H   0  0  0  0  0  0  0  0  0  0  0  0
    5.4500   22.4060   58.0130 H   0  0  0  0  0  0  0  0  0  0  0  0
   10.5990   20.6720   49.0610 N   0  0  0  0  0  0  0  0  0  0  0  0
   10.9990   19.9710   48.4210 H   0  0  0  0  0  0  0  0  0  0  0  0
   10.8580   21.6640   48.9640 H   0  0  0  0  0  0  0  0  0  0  0  0
  1 16  1  0  0  0  0
  1 13  1  0  0  0  0
  2  1  2  0  0  0  0
  3  2  1  0  0  0  0
  3  4  2  0  0  0  0
  4 11  1  0  0  0  0
  5  6  1  0  0  0  0
  6  7  2  0  0  0  0
  6 15  1  0  0  0  0
  7 20  1  0  0  0  0
  8 21  1  0  0  0  0
  8  7  1  0  0  0  0
  9 22  1  0  0  0  0
  9 12  1  0  0  0  0
 10 14  1  0  0  0  0
 11 13  1  0  0  0  0
 11 10  2  0  0  0  0
 12  8  2  0  0  0  0
 13  9  2  0  0  0  0
 14 12  1  0  0  0  0
 14  5  2  0  0  0  0
 15 24  1  0  0  0  0
 17  2  1  0  0  0  0
 18  4  1  0  0  0  0
 19  5  1  0  0  0  0
 23 15  1  0  0  0  0
 25  3  1  0  0  0  0
 26 25  1  0  0  0  0
 27 25  1  0  0  0  0
M  END
>  <MODEL>
6

>  <REMARK>
 VINA RESULT:      -6.3      3.102      4.505
  1 active torsions:
  status: ('A' for Active; 'I' for Inactive)
    1  A    between atoms: C3_3  and  N15_15 

>  <TORSDO>
F 1

$$$$
1bcu_decoys.pdbqt
 OpenBabel10162310053D

 27 29  0  0  0  0  0  0  0  0999 V2000
    6.1680   19.5730   55.4180 C   0  0  0  0  0  0  0  0  0  0  0  0
    5.8330   20.4020   56.4070 C   0  0  0  0  0  0  0  0  0  0  0  0
    6.2330   21.7910   56.4100 C   0  0  0  0  0  0  0  0  0  0  0  0
    6.9970   22.2480   55.3530 C   0  0  0  0  0  0  0  0  0  0  0  0
    9.1030   21.6820   51.0850 C   0  0  0  0  0  0  0  0  0  0  0  0
    9.4410   20.9320   49.9720 C   0  0  0  0  0  0  0  0  0  0  0  0
    9.0420   19.5400   49.9420 C   0  0  0  0  0  0  0  0  0  0  0  0
    8.3670   18.9800   50.9470 C   0  0  0  0  0  0  0  0  0  0  0  0
    7.2850   19.2360   53.2000 C   0  0  0  0  0  0  0  0  0  0  0  0
    8.0570   21.8730   53.2330 N   0  0  0  0  0  0  0  0  0  0  0  0
    7.3490   21.4070   54.3180 C   0  0  0  0  0  0  0  0  0  0  0  0
    7.9970   19.7390   52.1230 C   0  0  0  0  0  0  0  0  0  0  0  0
    6.9480   20.0210   54.2900 C   0  0  0  0  0  0  0  0  0  0  0  0
    8.4070   21.1220   52.1330 C   0  0  0  0  0  0  0  0  0  0  0  0
   10.1080   21.4770   48.9290 N   0  0  0  0  0  0  0  0  0  0  0  0
    5.8470   18.5400   55.4630 H   0  0  0  0  0  0  0  0  0  0  0  0
    5.2430   20.0230   57.2330 H   0  0  0  0  0  0  0  0  0  0  0  0
    7.3250   23.2810   55.3370 H   0  0  0  0  0  0  0  0  0  0  0  0
    9.3910   22.7270   51.1320 H   0  0  0  0  0  0  0  0  0  0  0  0
    9.2980   18.9370   49.0780 H   0  0  0  0  0  0  0  0  0  0  0  0
    8.0910   17.9340   50.8830 H   0  0  0  0  0  0  0  0  0  0  0  0
    6.9840   18.1940   53.1900 H   0  0  0  0  0  0  0  0  0  0  0  0
   10.3890   22.4680   48.9580 H   0  0  0  0  0  0  0  0  0  0  0  0
   10.3350   20.9010   48.1050 H   0  0  0  0  0  0  0  0  0  0  0  0
    5.7940   22.6230   57.3820 N   0  0  0  0  0  0  0  0  0  0  0  0
    4.8310   22.5360   57.7380 H   0  0  0  0  0  0  0  0  0  0  0  0
    6.4220   23.3430   57.7670 H   0  0  0  0  0  0  0  0  0  0  0  0
  1 16  1  0  0  0  0
  1  2  1  0  0  0  0
  2  3  2  0  0  0  0
  2 17  1  0  0  0  0
  3 25  1  0  0  0  0
  4  3  1  0  0  0  0
  5 19  1  0  0  0  0
  5 14  1  0  0  0  0
  6  5  2  0  0  0  0
  7  6  1  0  0  0  0
  7  8  2  0  0  0  0
  8 12  1  0  0  0  0
  9 13  1  0  0  0  0
 10 11  1  0  0  0  0
 11  4  2  0  0  0  0
 12 14  1  0  0  0  0
 12  9  2  0  0  0  0
 13 11  1  0  0  0  0
 13  1  2  0  0  0  0
 14 10  2  0  0  0  0
 15 23  1  0  0  0  0
 15  6  1  0  0  0  0
 18  4  1  0  0  0  0
 20  7  1  0  0  0  0
 21  8  1  0  0  0  0
 22  9  1  0  0  0  0
 24 15  1  0  0  0  0
 25 26  1  0  0  0  0
 25 27  1  0  0  0  0
M  END
>  <MODEL>
7

>  <REMARK>
 VINA RESULT:      -6.2      3.209      6.244
  1 active torsions:
  status: ('A' for Active; 'I' for Inactive)
    1  A    between atoms: C3_3  and  N15_15 

>  <TORSDO>
F 1

$$$$
1bcu_decoys.pdbqt
 OpenBabel10162310053D

 27 29  0  0  0  0  0  0  0  0999 V2000
    3.8870   21.0400   50.9220 C   0  0  0  0  0  0  0  0  0  0  0  0
    3.0430   20.0120   50.8520 C   0  0  0  0  0  0  0  0  0  0  0  0
    3.4350   18.7340   50.3020 C   0  0  0  0  0  0  0  0  0  0  0  0
    4.7260   18.6030   49.8270 C   0  0  0  0  0  0  0  0  0  0  0  0
    9.1780   20.2360   49.1320 C   0  0  0  0  0  0  0  0  0  0  0  0
   10.1570   21.2100   49.2250 C   0  0  0  0  0  0  0  0  0  0  0  0
    9.7900   22.4940   49.7830 C   0  0  0  0  0  0  0  0  0  0  0  0
    8.5490   22.7510   50.2010 C   0  0  0  0  0  0  0  0  0  0  0  0
    6.1980   21.9360   50.5440 C   0  0  0  0  0  0  0  0  0  0  0  0
    6.9210   19.5080   49.4800 N   0  0  0  0  0  0  0  0  0  0  0  0
    5.6160   19.6530   49.8950 C   0  0  0  0  0  0  0  0  0  0  0  0
    7.5040   21.7520   50.1190 C   0  0  0  0  0  0  0  0  0  0  0  0
    5.2480   20.9320   50.4530 C   0  0  0  0  0  0  0  0  0  0  0  0
    7.8920   20.4810   49.5590 C   0  0  0  0  0  0  0  0  0  0  0  0
   11.4290   20.9730   48.8280 N   0  0  0  0  0  0  0  0  0  0  0  0
    3.5450   21.9790   51.3400 H   0  0  0  0  0  0  0  0  0  0  0  0
    2.0300   20.1380   51.2200 H   0  0  0  0  0  0  0  0  0  0  0  0
    5.0440   17.6610   49.3940 H   0  0  0  0  0  0  0  0  0  0  0  0
    9.4280   19.2650   48.7180 H   0  0  0  0  0  0  0  0  0  0  0  0
   10.5440   23.2690   49.8640 H   0  0  0  0  0  0  0  0  0  0  0  0
    8.3190   23.7280   50.6100 H   0  0  0  0  0  0  0  0  0  0  0  0
    5.9110   22.8940   50.9610 H   0  0  0  0  0  0  0  0  0  0  0  0
   11.6820   20.0560   48.4310 H   0  0  0  0  0  0  0  0  0  0  0  0
   12.1440   21.7090   48.9210 H   0  0  0  0  0  0  0  0  0  0  0  0
    2.5780   17.6880   50.3360 N   0  0  0  0  0  0  0  0  0  0  0  0
    1.7140   17.7480   50.8930 H   0  0  0  0  0  0  0  0  0  0  0  0
    2.7900   16.8310   49.8040 H   0  0  0  0  0  0  0  0  0  0  0  0
  1 16  1  0  0  0  0
  2  1  1  0  0  0  0
  2 17  1  0  0  0  0
  3 25  1  0  0  0  0
  3  2  2  0  0  0  0
  4 11  2  0  0  0  0
  4  3  1  0  0  0  0
  5  6  2  0  0  0  0
  5 14  1  0  0  0  0
  6  7  1  0  0  0  0
  7 20  1  0  0  0  0
  7  8  2  0  0  0  0
  8 21  1  0  0  0  0
  9 22  1  0  0  0  0
 10 14  2  0  0  0  0
 10 11  1  0  0  0  0
 11 13  1  0  0  0  0
 12  8  1  0  0  0  0
 12  9  2  0  0  0  0
 13  9  1  0  0  0  0
 13  1  2  0  0  0  0
 14 12  1  0  0  0  0
 15 24  1  0  0  0  0
 15  6  1  0  0  0  0
 18  4  1  0  0  0  0
 19  5  1  0  0  0  0
 23 15  1  0  0  0  0
 25 26  1  0  0  0  0
 27 25  1  0  0  0  0
M  END
>  <MODEL>
8

>  <REMARK>
 VINA RESULT:      -6.1      3.529      5.787
  1 active torsions:
  status: ('A' for Active; 'I' for Inactive)
    1  A    between atoms: C3_3  and  N15_15 

>  <TORSDO>
F 1

$$$$
1bcu_decoys.pdbqt
 OpenBabel10162310053D

 27 29  0  0  0  0  0  0  0  0999 V2000
    2.0440   19.2730   45.9860 C   0  0  0  0  0  0  0  0  0  0  0  0
    2.3610   18.5060   44.9440 C   0  0  0  0  0  0  0  0  0  0  0  0
    3.5060   17.6230   44.9630 C   0  0  0  0  0  0  0  0  0  0  0  0
    4.2890   17.6030   46.1020 C   0  0  0  0  0  0  0  0  0  0  0  0
    5.2360   18.8810   50.6230 C   0  0  0  0  0  0  0  0  0  0  0  0
    4.9560   19.5760   51.7870 C   0  0  0  0  0  0  0  0  0  0  0  0
    3.8070   20.4570   51.7950 C   0  0  0  0  0  0  0  0  0  0  0  0
    3.0300   20.6090   50.7220 C   0  0  0  0  0  0  0  0  0  0  0  0
    2.5280   19.9860   48.3400 C   0  0  0  0  0  0  0  0  0  0  0  0
    4.7150   18.3220   48.3520 N   0  0  0  0  0  0  0  0  0  0  0  0
    3.9740   18.3850   47.1930 C   0  0  0  0  0  0  0  0  0  0  0  0
    3.2950   19.8950   49.4900 C   0  0  0  0  0  0  0  0  0  0  0  0
    2.8280   19.2620   47.1980 C   0  0  0  0  0  0  0  0  0  0  0  0
    4.4450   19.0240   49.5050 C   0  0  0  0  0  0  0  0  0  0  0  0
    5.7150   19.4280   52.8980 N   0  0  0  0  0  0  0  0  0  0  0  0
    1.1770   19.9200   45.9230 H   0  0  0  0  0  0  0  0  0  0  0  0
    1.7420   18.5440   44.0560 H   0  0  0  0  0  0  0  0  0  0  0  0
    5.1640   16.9630   46.1390 H   0  0  0  0  0  0  0  0  0  0  0  0
    6.0910   18.2150   50.5910 H   0  0  0  0  0  0  0  0  0  0  0  0
    3.5720   21.0090   52.6980 H   0  0  0  0  0  0  0  0  0  0  0  0
    2.1810   21.2820   50.7720 H   0  0  0  0  0  0  0  0  0  0  0  0
    1.6680   20.6450   48.3340 H   0  0  0  0  0  0  0  0  0  0  0  0
    6.5310   18.7990   52.8840 H   0  0  0  0  0  0  0  0  0  0  0  0
    5.4770   19.9440   53.7570 H   0  0  0  0  0  0  0  0  0  0  0  0
    3.7410   16.7910   43.9230 N   0  0  0  0  0  0  0  0  0  0  0  0
    3.0510   16.0670   43.6780 H   0  0  0  0  0  0  0  0  0  0  0  0
    4.6090   16.8820   43.3760 H   0  0  0  0  0  0  0  0  0  0  0  0
  1 13  1  0  0  0  0
  2  3  1  0  0  0  0
  2  1  2  0  0  0  0
  3  4  2  0  0  0  0
  4 18  1  0  0  0  0
  4 11  1  0  0  0  0
  5  6  1  0  0  0  0
  6  7  2  0  0  0  0
  6 15  1  0  0  0  0
  7 20  1  0  0  0  0
  8 21  1  0  0  0  0
  8  7  1  0  0  0  0
  9 12  1  0  0  0  0
 10 14  1  0  0  0  0
 11 13  1  0  0  0  0
 11 10  2  0  0  0  0
 12 14  1  0  0  0  0
 12  8  2  0  0  0  0
 13  9  2  0  0  0  0
 14  5  2  0  0  0  0
 15 24  1  0  0  0  0
 16  1  1  0  0  0  0
 17  2  1  0  0  0  0
 19  5  1  0  0  0  0
 22  9  1  0  0  0  0
 23 15  1  0  0  0  0
 25  3  1  0  0  0  0
 26 25  1  0  0  0  0
 27 25  1  0  0  0  0
M  END
>  <MODEL>
9

>  <REMARK>
 VINA RESULT:      -6.0      6.615      7.052
  1 active torsions:
  status: ('A' for Active; 'I' for Inactive)
    1  A    between atoms: C3_3  and  N15_15 

>  <TORSDO>
F 1

$$$$
1bcu_decoys.pdbqt
 OpenBabel10162310053D

 27 29  0  0  0  0  0  0  0  0999 V2000
    3.0620   20.6400   50.7790 C   0  0  0  0  0  0  0  0  0  0  0  0
    3.8720   20.5320   51.8310 C   0  0  0  0  0  0  0  0  0  0  0  0
    5.0050   19.6330   51.8360 C   0  0  0  0  0  0  0  0  0  0  0  0
    5.2250   18.8640   50.7090 C   0  0  0  0  0  0  0  0  0  0  0  0
    4.2590   17.5760   46.1950 C   0  0  0  0  0  0  0  0  0  0  0  0
    3.5290   17.6640   45.0220 C   0  0  0  0  0  0  0  0  0  0  0  0
    2.3970   18.5660   44.9910 C   0  0  0  0  0  0  0  0  0  0  0  0
    2.0510   19.2980   46.0510 C   0  0  0  0  0  0  0  0  0  0  0  0
    2.5100   19.9670   48.4290 C   0  0  0  0  0  0  0  0  0  0  0  0
    4.6530   18.2470   48.4620 N   0  0  0  0  0  0  0  0  0  0  0  0
    4.4010   18.9660   49.6090 C   0  0  0  0  0  0  0  0  0  0  0  0
    2.7960   19.2290   47.2910 C   0  0  0  0  0  0  0  0  0  0  0  0
    3.2740   19.8670   49.5800 C   0  0  0  0  0  0  0  0  0  0  0  0
    3.9180   18.3240   47.3000 C   0  0  0  0  0  0  0  0  0  0  0  0
    3.8670   16.9480   43.9240 N   0  0  0  0  0  0  0  0  0  0  0  0
    2.2240   21.3260   50.8250 H   0  0  0  0  0  0  0  0  0  0  0  0
    3.6770   21.1360   52.7100 H   0  0  0  0  0  0  0  0  0  0  0  0
    6.0580   18.1690   50.6900 H   0  0  0  0  0  0  0  0  0  0  0  0
    5.1120   16.9080   46.2440 H   0  0  0  0  0  0  0  0  0  0  0  0
    1.8130   18.6480   44.0810 H   0  0  0  0  0  0  0  0  0  0  0  0
    1.1930   19.9580   45.9830 H   0  0  0  0  0  0  0  0  0  0  0  0
    1.6630   20.6430   48.4180 H   0  0  0  0  0  0  0  0  0  0  0  0
    4.6740   16.3090   43.9550 H   0  0  0  0  0  0  0  0  0  0  0  0
    3.3170   17.0430   43.0580 H   0  0  0  0  0  0  0  0  0  0  0  0
    5.8580   19.6210   52.8850 N   0  0  0  0  0  0  0  0  0  0  0  0
    6.3220   18.7440   53.1610 H   0  0  0  0  0  0  0  0  0  0  0  0
    6.0450   20.4890   53.4070 H   0  0  0  0  0  0  0  0  0  0  0  0
  1 16  1  0  0  0  0
  1  2  1  0  0  0  0
  2  3  2  0  0  0  0
  2 17  1  0  0  0  0
  3 25  1  0  0  0  0
  4  3  1  0  0  0  0
  5 19  1  0  0  0  0
  5 14  1  0  0  0  0
  6  5  2  0  0  0  0
  7  6  1  0  0  0  0
  7  8  2  0  0  0  0
  8 12  1  0  0  0  0
  9 13  1  0  0  0  0
 10 11  1  0  0  0  0
 11  4  2  0  0  0  0
 12 14  1  0  0  0  0
 12  9  2  0  0  0  0
 13 11  1  0  0  0  0
 13  1  2  0  0  0  0
 14 10  2  0  0  0  0
 15 23  1  0  0  0  0
 15  6  1  0  0  0  0
 18  4  1  0  0  0  0
 20  7  1  0  0  0  0
 21  8  1  0  0  0  0
 22  9  1  0  0  0  0
 24 15  1  0  0  0  0
 25 26  1  0  0  0  0
 25 27  1  0  0  0  0
M  END
>  <MODEL>
10

>  <REMARK>
 VINA RESULT:      -5.9      6.573      7.836
  1 active torsions:
  status: ('A' for Active; 'I' for Inactive)
    1  A    between atoms: C3_3  and  N15_15 

>  <TORSDO>
F 1

$$$$
