@<TRIPOS>MOLECULE
1bcu_decoys.pdbqt
 27 29 0 0 0
SMALL
GASTEIGER

@<TRIPOS>ATOM
      1  C1         8.8780   23.3190   49.5370 C.ar    0  PRL0       -0.0690
      2  C2         9.6160   23.7040   48.4960 C.ar    0  PRL0       -0.0570
      3  C3        10.6540   22.8650   47.9420 C.ar    0  PRL0        0.0280
      4  C4        10.8800   21.6370   48.5350 C.ar    0  PRL0       -0.0290
      5  C5         9.8040   18.1800   51.6760 C.ar    0  PRL0       -0.0290
      6  C6         9.0490   17.6490   52.7070 C.ar    0  PRL0        0.0280
      7  C7         7.9960   18.4680   53.2710 C.ar    0  PRL0       -0.0570
      8  C8         7.7460   19.6990   52.8230 C.ar    0  PRL0       -0.0690
      9  C9         8.3100   21.5440   51.2130 C.ar    0  PRL0       -0.0590
     10  N10       10.3030   19.9700   50.1620 N.ar    0  PRL0       -0.2470
     11  C11       10.1230   21.2180   49.6080 C.ar    0  PRL0        0.0700
     12  C12        8.5170   20.2810   51.7440 C.ar    0  PRL0       -0.0060
     13  C13        9.0730   22.0360   50.1670 C.ar    0  PRL0       -0.0060
     14  C14        9.5610   19.4490   51.1990 C.ar    0  PRL0        0.0700
     15  N16        9.2670   16.3970   53.1700 N.pl3   0  PRL0       -0.3990
     16  H1         8.1130   23.9850   49.9190 H       0  PRL0        0.0850
     17  H2         9.4310   24.6750   48.0520 H       0  PRL0        0.0860
     18  H3        11.6630   20.9930   48.1500 H       0  PRL0        0.0900
     19  H4        10.5990   17.5870   51.2360 H       0  PRL0        0.0900
     20  H5         7.3940   18.0690   54.0800 H       0  PRL0        0.0860
     21  H6         6.9490   20.2770   53.2770 H       0  PRL0        0.0850
     22  H7         7.5260   22.1660   51.6300 H       0  PRL0        0.0860
     23  H10       10.0190   15.8210   52.7640 H       0  PRL0        0.1560
     24  H11        8.6810   16.0190   53.9290 H       0  PRL0        0.1560
     25  N15       11.3170   23.2500   46.8280 N.pl3   0  PRL0       -0.3990
     26  H8        11.6830   22.5420   46.1750 H       0  PRL0        0.1560
     27  H9        11.4560   24.2520   46.6310 H       0  PRL0        0.1560
@<TRIPOS>BOND
     1    26    25    1
     2    27    25    1
     3    25     3    1
     4     3     2   ar
     5     3     4   ar
     6    17     2    1
     7    18     4    1
     8     2     1   ar
     9     4    11   ar
    10     1    16    1
    11     1    13   ar
    12    11    10   ar
    13    11    13   ar
    14    10    14   ar
    15    13     9   ar
    16    14     5   ar
    17    14    12   ar
    18     9    22    1
    19     9    12   ar
    20    19     5    1
    21     5     6   ar
    22    12     8   ar
    23     6    15    1
    24     6     7   ar
    25    23    15    1
    26     8     7   ar
    27     8    21    1
    28    15    24    1
    29     7    20    1
@<TRIPOS>MOLECULE
1bcu_decoys.pdbqt
 27 29 0 0 0
SMALL
GASTEIGER

@<TRIPOS>ATOM
      1  C1         7.7650   19.7140   52.7710 C.ar    0  PRL0       -0.0690
      2  C2         8.0440   18.5010   53.2450 C.ar    0  PRL0       -0.0570
      3  C3         9.0580   17.6590   52.6500 C.ar    0  PRL0        0.0280
      4  C4         9.7350   18.1450   51.5470 C.ar    0  PRL0       -0.0290
      5  C5        10.7930   21.6010   48.3990 C.ar    0  PRL0       -0.0290
      6  C6        10.6390   22.8710   47.8730 C.ar    0  PRL0        0.0280
      7  C7         9.6370   23.7350   48.4610 C.ar    0  PRL0       -0.0570
      8  C8         8.8740   23.3360   49.4800 C.ar    0  PRL0       -0.0690
      9  C9         8.2720   21.5310   51.1200 C.ar    0  PRL0       -0.0590
     10  N10       10.1800   19.9110   49.9850 N.ar    0  PRL0       -0.2470
     11  C11        9.4650   19.4000   51.0450 C.ar    0  PRL0        0.0700
     12  C12        9.0130   22.0140   50.0540 C.ar    0  PRL0       -0.0060
     13  C13        8.4660   20.2590   51.6340 C.ar    0  PRL0       -0.0060
     14  C14       10.0160   21.1700   49.4520 C.ar    0  PRL0        0.0700
     15  N16       11.4100   23.3110   46.8520 N.pl3   0  PRL0       -0.3990
     16  H1         6.9940   20.3050   53.2500 H       0  PRL0        0.0850
     17  H2         7.4940   18.1330   54.1040 H       0  PRL0        0.0860
     18  H3        10.4900   17.5290   51.0690 H       0  PRL0        0.0900
     19  H4        11.5370   20.9340   47.9770 H       0  PRL0        0.0900
     20  H5         9.5020   24.7340   48.0620 H       0  PRL0        0.0860
     21  H6         8.1340   24.0160   49.8870 H       0  PRL0        0.0850
     22  H7         7.5170   22.1680   51.5660 H       0  PRL0        0.0860
     23  H10       12.1210   22.6900   46.4380 H       0  PRL0        0.1560
     24  H11       11.2870   24.2670   46.4870 H       0  PRL0        0.1560
     25  N15        9.3780   16.4740   53.2170 N.pl3   0  PRL0       -0.3990
     26  H8        10.0590   16.4400   53.9890 H       0  PRL0        0.1560
     27  H9         8.9400   15.6060   52.8780 H       0  PRL0        0.1560
@<TRIPOS>BOND
     1    23    15    1
     2    24    15    1
     3    15     6    1
     4     6     5   ar
     5     6     7   ar
     6    19     5    1
     7    20     7    1
     8     5    14   ar
     9     7     8   ar
    10    14    10   ar
    11    14    12   ar
    12     8    21    1
    13     8    12   ar
    14    10    11   ar
    15    12     9   ar
    16    11     4   ar
    17    11    13   ar
    18    18     4    1
    19     9    22    1
    20     9    13   ar
    21     4     3   ar
    22    13     1   ar
    23     3    25    1
    24     3     2   ar
    25     1     2   ar
    26     1    16    1
    27    27    25    1
    28    25    26    1
    29     2    17    1
@<TRIPOS>MOLECULE
1bcu_decoys.pdbqt
 27 29 0 0 0
SMALL
GASTEIGER

@<TRIPOS>ATOM
      1  C1        11.0390   21.5230   47.9490 C.ar    0  PRL0       -0.0690
      2  C2        11.0560   22.6740   47.2780 C.ar    0  PRL0       -0.0570
      3  C3        10.2120   23.7890   47.6460 C.ar    0  PRL0        0.0280
      4  C4         9.3600   23.6270   48.7220 C.ar    0  PRL0       -0.0290
      5  C5         7.6530   21.1400   52.4470 C.ar    0  PRL0       -0.0290
      6  C6         7.6090   20.0210   53.2590 C.ar    0  PRL0        0.0280
      7  C7         8.4540   18.8960   52.9150 C.ar    0  PRL0       -0.0570
      8  C8         9.2570   18.9190   51.8500 C.ar    0  PRL0       -0.0690
      9  C9        10.1440   20.1840   49.8700 C.ar    0  PRL0       -0.0590
     10  N10        8.5300   22.3030   50.5440 N.ar    0  PRL0       -0.2470
     11  C11        9.3320   22.4460   49.4330 C.ar    0  PRL0        0.0700
     12  C12        9.3270   20.0760   50.9830 C.ar    0  PRL0       -0.0060
     13  C13       10.1760   21.3280   49.0890 C.ar    0  PRL0       -0.0060
     14  C14        8.4760   21.1840   51.3430 C.ar    0  PRL0        0.0700
     15  N16        6.8180   19.9750   54.3570 N.pl3   0  PRL0       -0.3990
     16  H1        11.6880   20.7160   47.6320 H       0  PRL0        0.0850
     17  H2        11.7230   22.7780   46.4290 H       0  PRL0        0.0860
     18  H3         8.7040   24.4410   49.0120 H       0  PRL0        0.0900
     19  H4         7.0300   21.9960   52.6830 H       0  PRL0        0.0900
     20  H5         8.4330   18.0100   53.5400 H       0  PRL0        0.0860
     21  H6         9.8700   18.0530   51.6300 H       0  PRL0        0.0850
     22  H7        10.7790   19.3470   49.6010 H       0  PRL0        0.0860
     23  H10        6.2200   20.7790   54.5940 H       0  PRL0        0.1560
     24  H11        6.8150   19.1360   54.9540 H       0  PRL0        0.1560
     25  N15       10.3260   24.9710   46.9990 N.pl3   0  PRL0       -0.3990
     26  H8         9.6480   25.7240   47.1800 H       0  PRL0        0.1560
     27  H9        11.0920   25.1180   46.3260 H       0  PRL0        0.1560
@<TRIPOS>BOND
     1    27    25    1
     2    17     2    1
     3    25    26    1
     4    25     3    1
     5     2     3   ar
     6     2     1   ar
     7    16     1    1
     8     3     4   ar
     9     1    13   ar
    10     4    18    1
    11     4    11   ar
    12    13    11   ar
    13    13     9   ar
    14    11    10   ar
    15    22     9    1
    16     9    12   ar
    17    10    14   ar
    18    12    14   ar
    19    12     8   ar
    20    14     5   ar
    21    21     8    1
    22     8     7   ar
    23     5    19    1
    24     5     6   ar
    25     7     6   ar
    26     7    20    1
    27     6    15    1
    28    15    23    1
    29    15    24    1
@<TRIPOS>MOLECULE
1bcu_decoys.pdbqt
 27 29 0 0 0
SMALL
GASTEIGER

@<TRIPOS>ATOM
      1  C1        10.3680   20.4320   49.7390 C.ar    0  PRL0       -0.0690
      2  C2        10.6450   21.3900   48.8560 C.ar    0  PRL0       -0.0570
      3  C3         9.8640   22.6030   48.7710 C.ar    0  PRL0        0.0280
      4  C4         8.7940   22.7460   49.6340 C.ar    0  PRL0       -0.0290
      5  C5         6.0950   21.3000   53.3210 C.ar    0  PRL0       -0.0290
      6  C6         5.7650   20.4080   54.3260 C.ar    0  PRL0        0.0280
      7  C7         6.5410   19.1900   54.4360 C.ar    0  PRL0       -0.0570
      8  C8         7.5470   18.9180   53.6040 C.ar    0  PRL0       -0.0690
      9  C9         8.9570   19.6320   51.6500 C.ar    0  PRL0       -0.0590
     10  N10        7.4680   21.9340   51.4620 N.ar    0  PRL0       -0.2470
     11  C11        8.4950   21.7680   50.5590 C.ar    0  PRL0        0.0700
     12  C12        7.9180   19.8340   52.5440 C.ar    0  PRL0       -0.0060
     13  C13        9.2700   20.5570   50.6680 C.ar    0  PRL0       -0.0060
     14  C14        7.1310   21.0390   52.4520 C.ar    0  PRL0        0.0700
     15  N16        4.7620   20.6640   55.1980 N.pl3   0  PRL0       -0.3990
     16  H1        10.9810   19.5390   49.7620 H       0  PRL0        0.0850
     17  H2        11.4820   21.2550   48.1790 H       0  PRL0        0.0860
     18  H3         8.1800   23.6390   49.5820 H       0  PRL0        0.0900
     19  H4         5.5290   22.2200   53.2170 H       0  PRL0        0.0900
     20  H5         6.2980   18.4790   55.2180 H       0  PRL0        0.0860
     21  H6         8.0990   17.9930   53.7220 H       0  PRL0        0.0850
     22  H7         9.5420   18.7230   51.7220 H       0  PRL0        0.0860
     23  H10        4.2150   21.5320   55.1120 H       0  PRL0        0.1560
     24  H11        4.5460   19.9900   55.9470 H       0  PRL0        0.1560
     25  N15       10.2340   23.5920   47.9260 N.pl3   0  PRL0       -0.3990
     26  H8         9.5490   24.3050   47.6350 H       0  PRL0        0.1560
     27  H9        11.2010   23.6330   47.5720 H       0  PRL0        0.1560
@<TRIPOS>BOND
     1    27    25    1
     2    26    25    1
     3    25     3    1
     4    17     2    1
     5     3     2   ar
     6     3     4   ar
     7     2     1   ar
     8    18     4    1
     9     4    11   ar
    10     1    16    1
    11     1    13   ar
    12    11    13   ar
    13    11    10   ar
    14    13     9   ar
    15    10    14   ar
    16     9    22    1
    17     9    12   ar
    18    14    12   ar
    19    14     5   ar
    20    12     8   ar
    21    19     5    1
    22     5     6   ar
    23     8    21    1
    24     8     7   ar
    25     6     7   ar
    26     6    15    1
    27     7    20    1
    28    23    15    1
    29    15    24    1
@<TRIPOS>MOLECULE
1bcu_decoys.pdbqt
 27 29 0 0 0
SMALL
GASTEIGER

@<TRIPOS>ATOM
      1  C1         8.6220   22.7480   50.0540 C.ar    0  PRL0       -0.0690
      2  C2         9.8520   22.5150   49.5960 C.ar    0  PRL0       -0.0570
      3  C3        10.2570   21.2120   49.1180 C.ar    0  PRL0        0.0280
      4  C4         9.3280   20.1900   49.1610 C.ar    0  PRL0       -0.0290
      5  C5         4.9110   18.4990   49.9370 C.ar    0  PRL0       -0.0290
      6  C6         3.5890   18.6480   50.3180 C.ar    0  PRL0        0.0280
      7  C7         3.1580   19.9470   50.7900 C.ar    0  PRL0       -0.0570
      8  C8         3.9960   20.9830   50.8620 C.ar    0  PRL0       -0.0690
      9  C9         6.3100   21.8890   50.5000 C.ar    0  PRL0       -0.0590
     10  N10        7.1030   19.4130   49.6100 N.ar    0  PRL0       -0.2470
     11  C11        8.0490   20.4130   49.6250 C.ar    0  PRL0        0.0700
     12  C12        5.3840   20.8590   50.4690 C.ar    0  PRL0       -0.0060
     13  C13        7.6220   21.7090   50.0930 C.ar    0  PRL0       -0.0060
     14  C14        5.7910   19.5570   50.0040 C.ar    0  PRL0        0.0700
     15  N16        2.7110   17.6210   50.2380 N.pl3   0  PRL0       -0.3990
     16  H1         8.3670   23.7420   50.4040 H       0  PRL0        0.0850
     17  H2        10.5700   23.3270   49.5810 H       0  PRL0        0.0860
     18  H3         9.6090   19.1980   48.8240 H       0  PRL0        0.0900
     19  H4         5.2590   17.5360   49.5800 H       0  PRL0        0.0900
     20  H5         2.1250   20.0820   51.0930 H       0  PRL0        0.0860
     21  H6         3.6290   21.9370   51.2240 H       0  PRL0        0.0850
     22  H7         5.9990   22.8650   50.8540 H       0  PRL0        0.0860
     23  H10        3.0260   16.6990   49.9020 H       0  PRL0        0.1560
     24  H11        1.7280   17.7610   50.5140 H       0  PRL0        0.1560
     25  N15       11.4830   21.0390   48.5750 N.pl3   0  PRL0       -0.3990
     26  H8        11.5870   20.9630   47.5530 H       0  PRL0        0.1560
     27  H9        12.3130   20.9830   49.1820 H       0  PRL0        0.1560
@<TRIPOS>BOND
     1    26    25    1
     2    25     3    1
     3    25    27    1
     4    18     4    1
     5     3     4   ar
     6     3     2   ar
     7     4    11   ar
     8    19     5    1
     9    17     2    1
    10     2     1   ar
    11    10    11   ar
    12    10    14   ar
    13    11    13   ar
    14    23    15    1
    15     5    14   ar
    16     5     6   ar
    17    14    12   ar
    18     1    13   ar
    19     1    16    1
    20    13     9   ar
    21    15     6    1
    22    15    24    1
    23     6     7   ar
    24    12     9   ar
    25    12     8   ar
    26     9    22    1
    27     7     8   ar
    28     7    20    1
    29     8    21    1
@<TRIPOS>MOLECULE
1bcu_decoys.pdbqt
 27 29 0 0 0
SMALL
GASTEIGER

@<TRIPOS>ATOM
      1  C1         8.5360   18.4730   51.1120 C.ar    0  PRL0       -0.0690
      2  C2         9.3120   18.9090   50.1200 C.ar    0  PRL0       -0.0570
      3  C3         9.7350   20.2890   50.0290 C.ar    0  PRL0        0.0280
      4  C4         9.2980   21.1660   51.0030 C.ar    0  PRL0       -0.0290
      5  C5         7.0390   22.1620   55.1110 C.ar    0  PRL0       -0.0290
      6  C6         6.2970   21.8030   56.2230 C.ar    0  PRL0        0.0280
      7  C7         5.8720   20.4240   56.3410 C.ar    0  PRL0       -0.0570
      8  C8         6.1750   19.5120   55.4160 C.ar    0  PRL0       -0.0690
      9  C9         7.3190   18.9670   53.2470 C.ar    0  PRL0       -0.0590
     10  N10        8.1130   21.5900   53.0460 N.ar    0  PRL0       -0.2470
     11  C11        8.5000   20.7320   52.0400 C.ar    0  PRL0        0.0700
     12  C12        6.9510   19.8570   54.2430 C.ar    0  PRL0       -0.0060
     13  C13        8.0780   19.3570   52.1560 C.ar    0  PRL0       -0.0060
     14  C14        7.3620   21.2350   54.1450 C.ar    0  PRL0        0.0700
     15  N16        5.9900   22.7010   57.1870 N.pl3   0  PRL0       -0.3990
     16  H1         8.2430   17.4310   51.1350 H       0  PRL0        0.0850
     17  H2         9.6360   18.2080   49.3590 H       0  PRL0        0.0860
     18  H3         9.5860   22.2100   50.9510 H       0  PRL0        0.0900
     19  H4         7.3700   23.1890   54.9980 H       0  PRL0        0.0900
     20  H5         5.2900   20.1240   57.2060 H       0  PRL0        0.0860
     21  H6         5.8320   18.4920   55.5450 H       0  PRL0        0.0850
     22  H7         7.0030   17.9330   53.3240 H       0  PRL0        0.0860
     23  H10        6.2970   23.6810   57.0960 H       0  PRL0        0.1560
     24  H11        5.4500   22.4060   58.0130 H       0  PRL0        0.1560
     25  N15       10.5990   20.6720   49.0610 N.pl3   0  PRL0       -0.3990
     26  H8        10.9990   19.9710   48.4210 H       0  PRL0        0.1560
     27  H9        10.8580   21.6640   48.9640 H       0  PRL0        0.1560
@<TRIPOS>BOND
     1    26    25    1
     2    27    25    1
     3    25     3    1
     4    17     2    1
     5     3     2   ar
     6     3     4   ar
     7     2     1   ar
     8    18     4    1
     9     4    11   ar
    10     1    16    1
    11     1    13   ar
    12    11    13   ar
    13    11    10   ar
    14    13     9   ar
    15    10    14   ar
    16     9    22    1
    17     9    12   ar
    18    14    12   ar
    19    14     5   ar
    20    12     8   ar
    21    19     5    1
    22     5     6   ar
    23     8    21    1
    24     8     7   ar
    25     6     7   ar
    26     6    15    1
    27     7    20    1
    28    23    15    1
    29    15    24    1
@<TRIPOS>MOLECULE
1bcu_decoys.pdbqt
 27 29 0 0 0
SMALL
GASTEIGER

@<TRIPOS>ATOM
      1  C1         6.1680   19.5730   55.4180 C.ar    0  PRL0       -0.0690
      2  C2         5.8330   20.4020   56.4070 C.ar    0  PRL0       -0.0570
      3  C3         6.2330   21.7910   56.4100 C.ar    0  PRL0        0.0280
      4  C4         6.9970   22.2480   55.3530 C.ar    0  PRL0       -0.0290
      5  C5         9.1030   21.6820   51.0850 C.ar    0  PRL0       -0.0290
      6  C6         9.4410   20.9320   49.9720 C.ar    0  PRL0        0.0280
      7  C7         9.0420   19.5400   49.9420 C.ar    0  PRL0       -0.0570
      8  C8         8.3670   18.9800   50.9470 C.ar    0  PRL0       -0.0690
      9  C9         7.2850   19.2360   53.2000 C.ar    0  PRL0       -0.0590
     10  N10        8.0570   21.8730   53.2330 N.ar    0  PRL0       -0.2470
     11  C11        7.3490   21.4070   54.3180 C.ar    0  PRL0        0.0700
     12  C12        7.9970   19.7390   52.1230 C.ar    0  PRL0       -0.0060
     13  C13        6.9480   20.0210   54.2900 C.ar    0  PRL0       -0.0060
     14  C14        8.4070   21.1220   52.1330 C.ar    0  PRL0        0.0700
     15  N16       10.1080   21.4770   48.9290 N.pl3   0  PRL0       -0.3990
     16  H1         5.8470   18.5400   55.4630 H       0  PRL0        0.0850
     17  H2         5.2430   20.0230   57.2330 H       0  PRL0        0.0860
     18  H3         7.3250   23.2810   55.3370 H       0  PRL0        0.0900
     19  H4         9.3910   22.7270   51.1320 H       0  PRL0        0.0900
     20  H5         9.2980   18.9370   49.0780 H       0  PRL0        0.0860
     21  H6         8.0910   17.9340   50.8830 H       0  PRL0        0.0850
     22  H7         6.9840   18.1940   53.1900 H       0  PRL0        0.0860
     23  H10       10.3890   22.4680   48.9580 H       0  PRL0        0.1560
     24  H11       10.3350   20.9010   48.1050 H       0  PRL0        0.1560
     25  N15        5.7940   22.6230   57.3820 N.pl3   0  PRL0       -0.3990
     26  H8         4.8310   22.5360   57.7380 H       0  PRL0        0.1560
     27  H9         6.4220   23.3430   57.7670 H       0  PRL0        0.1560
@<TRIPOS>BOND
     1    24    15    1
     2    15    23    1
     3    15     6    1
     4    20     7    1
     5     7     6   ar
     6     7     8   ar
     7     6     5   ar
     8    21     8    1
     9     8    12   ar
    10     5    19    1
    11     5    14   ar
    12    12    14   ar
    13    12     9   ar
    14    14    10   ar
    15    22     9    1
    16     9    13   ar
    17    10    11   ar
    18    13    11   ar
    19    13     1   ar
    20    11     4   ar
    21    18     4    1
    22     4     3   ar
    23     1    16    1
    24     1     2   ar
    25     2     3   ar
    26     2    17    1
    27     3    25    1
    28    25    26    1
    29    25    27    1
@<TRIPOS>MOLECULE
1bcu_decoys.pdbqt
 27 29 0 0 0
SMALL
GASTEIGER

@<TRIPOS>ATOM
      1  C1         3.8870   21.0400   50.9220 C.ar    0  PRL0       -0.0690
      2  C2         3.0430   20.0120   50.8520 C.ar    0  PRL0       -0.0570
      3  C3         3.4350   18.7340   50.3020 C.ar    0  PRL0        0.0280
      4  C4         4.7260   18.6030   49.8270 C.ar    0  PRL0       -0.0290
      5  C5         9.1780   20.2360   49.1320 C.ar    0  PRL0       -0.0290
      6  C6        10.1570   21.2100   49.2250 C.ar    0  PRL0        0.0280
      7  C7         9.7900   22.4940   49.7830 C.ar    0  PRL0       -0.0570
      8  C8         8.5490   22.7510   50.2010 C.ar    0  PRL0       -0.0690
      9  C9         6.1980   21.9360   50.5440 C.ar    0  PRL0       -0.0590
     10  N10        6.9210   19.5080   49.4800 N.ar    0  PRL0       -0.2470
     11  C11        5.6160   19.6530   49.8950 C.ar    0  PRL0        0.0700
     12  C12        7.5040   21.7520   50.1190 C.ar    0  PRL0       -0.0060
     13  C13        5.2480   20.9320   50.4530 C.ar    0  PRL0       -0.0060
     14  C14        7.8920   20.4810   49.5590 C.ar    0  PRL0        0.0700
     15  N16       11.4290   20.9730   48.8280 N.pl3   0  PRL0       -0.3990
     16  H1         3.5450   21.9790   51.3400 H       0  PRL0        0.0850
     17  H2         2.0300   20.1380   51.2200 H       0  PRL0        0.0860
     18  H3         5.0440   17.6610   49.3940 H       0  PRL0        0.0900
     19  H4         9.4280   19.2650   48.7180 H       0  PRL0        0.0900
     20  H5        10.5440   23.2690   49.8640 H       0  PRL0        0.0860
     21  H6         8.3190   23.7280   50.6100 H       0  PRL0        0.0850
     22  H7         5.9110   22.8940   50.9610 H       0  PRL0        0.0860
     23  H10       11.6820   20.0560   48.4310 H       0  PRL0        0.1560
     24  H11       12.1440   21.7090   48.9210 H       0  PRL0        0.1560
     25  N15        2.5780   17.6880   50.3360 N.pl3   0  PRL0       -0.3990
     26  H8         1.7140   17.7480   50.8930 H       0  PRL0        0.1560
     27  H9         2.7900   16.8310   49.8040 H       0  PRL0        0.1560
@<TRIPOS>BOND
     1    23    15    1
     2    19     5    1
     3    15    24    1
     4    15     6    1
     5     5     6   ar
     6     5    14   ar
     7     6     7   ar
     8    18     4    1
     9    10    14   ar
    10    10    11   ar
    11    14    12   ar
    12     7    20    1
    13     7     8   ar
    14    27    25    1
    15     4    11   ar
    16     4     3   ar
    17    11    13   ar
    18    12     8   ar
    19    12     9   ar
    20     8    21    1
    21     3    25    1
    22     3     2   ar
    23    25    26    1
    24    13     9   ar
    25    13     1   ar
    26     9    22    1
    27     2     1   ar
    28     2    17    1
    29     1    16    1
@<TRIPOS>MOLECULE
1bcu_decoys.pdbqt
 27 29 0 0 0
SMALL
GASTEIGER

@<TRIPOS>ATOM
      1  C1         2.0440   19.2730   45.9860 C.ar    0  PRL0       -0.0690
      2  C2         2.3610   18.5060   44.9440 C.ar    0  PRL0       -0.0570
      3  C3         3.5060   17.6230   44.9630 C.ar    0  PRL0        0.0280
      4  C4         4.2890   17.6030   46.1020 C.ar    0  PRL0       -0.0290
      5  C5         5.2360   18.8810   50.6230 C.ar    0  PRL0       -0.0290
      6  C6         4.9560   19.5760   51.7870 C.ar    0  PRL0        0.0280
      7  C7         3.8070   20.4570   51.7950 C.ar    0  PRL0       -0.0570
      8  C8         3.0300   20.6090   50.7220 C.ar    0  PRL0       -0.0690
      9  C9         2.5280   19.9860   48.3400 C.ar    0  PRL0       -0.0590
     10  N10        4.7150   18.3220   48.3520 N.ar    0  PRL0       -0.2470
     11  C11        3.9740   18.3850   47.1930 C.ar    0  PRL0        0.0700
     12  C12        3.2950   19.8950   49.4900 C.ar    0  PRL0       -0.0060
     13  C13        2.8280   19.2620   47.1980 C.ar    0  PRL0       -0.0060
     14  C14        4.4450   19.0240   49.5050 C.ar    0  PRL0        0.0700
     15  N16        5.7150   19.4280   52.8980 N.pl3   0  PRL0       -0.3990
     16  H1         1.1770   19.9200   45.9230 H       0  PRL0        0.0850
     17  H2         1.7420   18.5440   44.0560 H       0  PRL0        0.0860
     18  H3         5.1640   16.9630   46.1390 H       0  PRL0        0.0900
     19  H4         6.0910   18.2150   50.5910 H       0  PRL0        0.0900
     20  H5         3.5720   21.0090   52.6980 H       0  PRL0        0.0860
     21  H6         2.1810   21.2820   50.7720 H       0  PRL0        0.0850
     22  H7         1.6680   20.6450   48.3340 H       0  PRL0        0.0860
     23  H10        6.5310   18.7990   52.8840 H       0  PRL0        0.1560
     24  H11        5.4770   19.9440   53.7570 H       0  PRL0        0.1560
     25  N15        3.7410   16.7910   43.9230 N.pl3   0  PRL0       -0.3990
     26  H8         3.0510   16.0670   43.6780 H       0  PRL0        0.1560
     27  H9         4.6090   16.8820   43.3760 H       0  PRL0        0.1560
@<TRIPOS>BOND
     1    27    25    1
     2    26    25    1
     3    25     3    1
     4    17     2    1
     5     2     3   ar
     6     2     1   ar
     7     3     4   ar
     8    16     1    1
     9     1    13   ar
    10     4    18    1
    11     4    11   ar
    12    11    13   ar
    13    11    10   ar
    14    13     9   ar
    15    22     9    1
    16     9    12   ar
    17    10    14   ar
    18    12    14   ar
    19    12     8   ar
    20    14     5   ar
    21    19     5    1
    22     5     6   ar
    23     8    21    1
    24     8     7   ar
    25     6     7   ar
    26     6    15    1
    27     7    20    1
    28    23    15    1
    29    15    24    1
@<TRIPOS>MOLECULE
1bcu_decoys.pdbqt
 27 29 0 0 0
SMALL
GASTEIGER

@<TRIPOS>ATOM
      1  C1         3.0620   20.6400   50.7790 C.ar    0  PRL0       -0.0690
      2  C2         3.8720   20.5320   51.8310 C.ar    0  PRL0       -0.0570
      3  C3         5.0050   19.6330   51.8360 C.ar    0  PRL0        0.0280
      4  C4         5.2250   18.8640   50.7090 C.ar    0  PRL0       -0.0290
      5  C5         4.2590   17.5760   46.1950 C.ar    0  PRL0       -0.0290
      6  C6         3.5290   17.6640   45.0220 C.ar    0  PRL0        0.0280
      7  C7         2.3970   18.5660   44.9910 C.ar    0  PRL0       -0.0570
      8  C8         2.0510   19.2980   46.0510 C.ar    0  PRL0       -0.0690
      9  C9         2.5100   19.9670   48.4290 C.ar    0  PRL0       -0.0590
     10  N10        4.6530   18.2470   48.4620 N.ar    0  PRL0       -0.2470
     11  C11        4.4010   18.9660   49.6090 C.ar    0  PRL0        0.0700
     12  C12        2.7960   19.2290   47.2910 C.ar    0  PRL0       -0.0060
     13  C13        3.2740   19.8670   49.5800 C.ar    0  PRL0       -0.0060
     14  C14        3.9180   18.3240   47.3000 C.ar    0  PRL0        0.0700
     15  N16        3.8670   16.9480   43.9240 N.pl3   0  PRL0       -0.3990
     16  H1         2.2240   21.3260   50.8250 H       0  PRL0        0.0850
     17  H2         3.6770   21.1360   52.7100 H       0  PRL0        0.0860
     18  H3         6.0580   18.1690   50.6900 H       0  PRL0        0.0900
     19  H4         5.1120   16.9080   46.2440 H       0  PRL0        0.0900
     20  H5         1.8130   18.6480   44.0810 H       0  PRL0        0.0860
     21  H6         1.1930   19.9580   45.9830 H       0  PRL0        0.0850
     22  H7         1.6630   20.6430   48.4180 H       0  PRL0        0.0860
     23  H10        4.6740   16.3090   43.9550 H       0  PRL0        0.1560
     24  H11        3.3170   17.0430   43.0580 H       0  PRL0        0.1560
     25  N15        5.8580   19.6210   52.8850 N.pl3   0  PRL0       -0.3990
     26  H8         6.3220   18.7440   53.1610 H       0  PRL0        0.1560
     27  H9         6.0450   20.4890   53.4070 H       0  PRL0        0.1560
@<TRIPOS>BOND
     1    24    15    1
     2    15    23    1
     3    15     6    1
     4    20     7    1
     5     7     6   ar
     6     7     8   ar
     7     6     5   ar
     8    21     8    1
     9     8    12   ar
    10     5    19    1
    11     5    14   ar
    12    12    14   ar
    13    12     9   ar
    14    14    10   ar
    15    22     9    1
    16     9    13   ar
    17    10    11   ar
    18    13    11   ar
    19    13     1   ar
    20    11     4   ar
    21    18     4    1
    22     4     3   ar
    23     1    16    1
    24     1     2   ar
    25     2     3   ar
    26     2    17    1
    27     3    25    1
    28    25    26    1
    29    25    27    1
