MODEL 1
REMARK VINA RESULT:      -7.5      0.000      0.000
REMARK  1 active torsions:
REMARK  status: ('A' for Active; 'I' for Inactive)
REMARK    1  A    between atoms: C3_3  and  N15_15 
ROOT
ATOM      1  C1  PRL d           8.878  23.319  49.537  0.00  0.00    -0.069 A 
ATOM      2  C2  PRL d           9.616  23.704  48.496  0.00  0.00    -0.057 A 
ATOM      3  C3  PRL d          10.654  22.865  47.942  0.00  0.00     0.028 A 
ATOM      4  C4  PRL d          10.880  21.637  48.535  0.00  0.00    -0.029 A 
ATOM      5  C5  PRL d           9.804  18.180  51.676  0.00  0.00    -0.029 A 
ATOM      6  C6  PRL d           9.049  17.649  52.707  0.00  0.00     0.028 A 
ATOM      7  C7  PRL d           7.996  18.468  53.271  0.00  0.00    -0.057 A 
ATOM      8  C8  PRL d           7.746  19.699  52.823  0.00  0.00    -0.069 A 
ATOM      9  C9  PRL d           8.310  21.544  51.213  0.00  0.00    -0.059 A 
ATOM     10  N10 PRL d          10.303  19.970  50.162  0.00  0.00    -0.247 NA
ATOM     11  C11 PRL d          10.123  21.218  49.608  0.00  0.00     0.070 A 
ATOM     12  C12 PRL d           8.517  20.281  51.744  0.00  0.00    -0.006 A 
ATOM     13  C13 PRL d           9.073  22.036  50.167  0.00  0.00    -0.006 A 
ATOM     14  C14 PRL d           9.561  19.449  51.199  0.00  0.00     0.070 A 
ATOM     15  N16 PRL d           9.267  16.397  53.170  0.00  0.00    -0.399 N 
ATOM     16  H1  PRL d           8.113  23.985  49.919  0.00  0.00     0.085 H 
ATOM     17  H2  PRL d           9.431  24.675  48.052  0.00  0.00     0.086 H 
ATOM     18  H3  PRL d          11.663  20.993  48.150  0.00  0.00     0.090 H 
ATOM     19  H4  PRL d          10.599  17.587  51.236  0.00  0.00     0.090 H 
ATOM     20  H5  PRL d           7.394  18.069  54.080  0.00  0.00     0.086 H 
ATOM     21  H6  PRL d           6.949  20.277  53.277  0.00  0.00     0.085 H 
ATOM     22  H7  PRL d           7.526  22.166  51.630  0.00  0.00     0.086 H 
ATOM     23  H10 PRL d          10.019  15.821  52.764  0.00  0.00     0.156 HD
ATOM     24  H11 PRL d           8.681  16.019  53.929  0.00  0.00     0.156 HD
ENDROOT
BRANCH   3  25
ATOM     25  N15 PRL d          11.317  23.250  46.828  0.00  0.00    -0.399 N 
ATOM     26  H8  PRL d          11.683  22.542  46.175  0.00  0.00     0.156 HD
ATOM     27  H9  PRL d          11.456  24.252  46.631  0.00  0.00     0.156 HD
ENDBRANCH   3  25
TORSDOF 1
ENDMDL
MODEL 2
REMARK VINA RESULT:      -7.4      0.130      5.666
REMARK  1 active torsions:
REMARK  status: ('A' for Active; 'I' for Inactive)
REMARK    1  A    between atoms: C3_3  and  N15_15 
ROOT
ATOM      1  C1  PRL d           7.765  19.714  52.771  0.00  0.00    -0.069 A 
ATOM      2  C2  PRL d           8.044  18.501  53.245  0.00  0.00    -0.057 A 
ATOM      3  C3  PRL d           9.058  17.659  52.650  0.00  0.00     0.028 A 
ATOM      4  C4  PRL d           9.735  18.145  51.547  0.00  0.00    -0.029 A 
ATOM      5  C5  PRL d          10.793  21.601  48.399  0.00  0.00    -0.029 A 
ATOM      6  C6  PRL d          10.639  22.871  47.873  0.00  0.00     0.028 A 
ATOM      7  C7  PRL d           9.637  23.735  48.461  0.00  0.00    -0.057 A 
ATOM      8  C8  PRL d           8.874  23.336  49.480  0.00  0.00    -0.069 A 
ATOM      9  C9  PRL d           8.272  21.531  51.120  0.00  0.00    -0.059 A 
ATOM     10  N10 PRL d          10.180  19.911  49.985  0.00  0.00    -0.247 NA
ATOM     11  C11 PRL d           9.465  19.400  51.045  0.00  0.00     0.070 A 
ATOM     12  C12 PRL d           9.013  22.014  50.054  0.00  0.00    -0.006 A 
ATOM     13  C13 PRL d           8.466  20.259  51.634  0.00  0.00    -0.006 A 
ATOM     14  C14 PRL d          10.016  21.170  49.452  0.00  0.00     0.070 A 
ATOM     15  N16 PRL d          11.410  23.311  46.852  0.00  0.00    -0.399 N 
ATOM     16  H1  PRL d           6.994  20.305  53.250  0.00  0.00     0.085 H 
ATOM     17  H2  PRL d           7.494  18.133  54.104  0.00  0.00     0.086 H 
ATOM     18  H3  PRL d          10.490  17.529  51.069  0.00  0.00     0.090 H 
ATOM     19  H4  PRL d          11.537  20.934  47.977  0.00  0.00     0.090 H 
ATOM     20  H5  PRL d           9.502  24.734  48.062  0.00  0.00     0.086 H 
ATOM     21  H6  PRL d           8.134  24.016  49.887  0.00  0.00     0.085 H 
ATOM     22  H7  PRL d           7.517  22.168  51.566  0.00  0.00     0.086 H 
ATOM     23  H10 PRL d          12.121  22.690  46.438  0.00  0.00     0.156 HD
ATOM     24  H11 PRL d          11.287  24.267  46.487  0.00  0.00     0.156 HD
ENDROOT
BRANCH   3  25
ATOM     25  N15 PRL d           9.378  16.474  53.217  0.00  0.00    -0.399 N 
ATOM     26  H8  PRL d          10.059  16.440  53.989  0.00  0.00     0.156 HD
ATOM     27  H9  PRL d           8.940  15.606  52.878  0.00  0.00     0.156 HD
ENDBRANCH   3  25
TORSDOF 1
ENDMDL
MODEL 3
REMARK VINA RESULT:      -7.0      1.613      2.491
REMARK  1 active torsions:
REMARK  status: ('A' for Active; 'I' for Inactive)
REMARK    1  A    between atoms: C3_3  and  N15_15 
ROOT
ATOM      1  C1  PRL d          11.039  21.523  47.949  0.00  0.00    -0.069 A 
ATOM      2  C2  PRL d          11.056  22.674  47.278  0.00  0.00    -0.057 A 
ATOM      3  C3  PRL d          10.212  23.789  47.646  0.00  0.00     0.028 A 
ATOM      4  C4  PRL d           9.360  23.627  48.722  0.00  0.00    -0.029 A 
ATOM      5  C5  PRL d           7.653  21.140  52.447  0.00  0.00    -0.029 A 
ATOM      6  C6  PRL d           7.609  20.021  53.259  0.00  0.00     0.028 A 
ATOM      7  C7  PRL d           8.454  18.896  52.915  0.00  0.00    -0.057 A 
ATOM      8  C8  PRL d           9.257  18.919  51.850  0.00  0.00    -0.069 A 
ATOM      9  C9  PRL d          10.144  20.184  49.870  0.00  0.00    -0.059 A 
ATOM     10  N10 PRL d           8.530  22.303  50.544  0.00  0.00    -0.247 NA
ATOM     11  C11 PRL d           9.332  22.446  49.433  0.00  0.00     0.070 A 
ATOM     12  C12 PRL d           9.327  20.076  50.983  0.00  0.00    -0.006 A 
ATOM     13  C13 PRL d          10.176  21.328  49.089  0.00  0.00    -0.006 A 
ATOM     14  C14 PRL d           8.476  21.184  51.343  0.00  0.00     0.070 A 
ATOM     15  N16 PRL d           6.818  19.975  54.357  0.00  0.00    -0.399 N 
ATOM     16  H1  PRL d          11.688  20.716  47.632  0.00  0.00     0.085 H 
ATOM     17  H2  PRL d          11.723  22.778  46.429  0.00  0.00     0.086 H 
ATOM     18  H3  PRL d           8.704  24.441  49.012  0.00  0.00     0.090 H 
ATOM     19  H4  PRL d           7.030  21.996  52.683  0.00  0.00     0.090 H 
ATOM     20  H5  PRL d           8.433  18.010  53.540  0.00  0.00     0.086 H 
ATOM     21  H6  PRL d           9.870  18.053  51.630  0.00  0.00     0.085 H 
ATOM     22  H7  PRL d          10.779  19.347  49.601  0.00  0.00     0.086 H 
ATOM     23  H10 PRL d           6.220  20.779  54.594  0.00  0.00     0.156 HD
ATOM     24  H11 PRL d           6.815  19.136  54.954  0.00  0.00     0.156 HD
ENDROOT
BRANCH   3  25
ATOM     25  N15 PRL d          10.326  24.971  46.999  0.00  0.00    -0.399 N 
ATOM     26  H8  PRL d           9.648  25.724  47.180  0.00  0.00     0.156 HD
ATOM     27  H9  PRL d          11.092  25.118  46.326  0.00  0.00     0.156 HD
ENDBRANCH   3  25
TORSDOF 1
ENDMDL
MODEL 4
REMARK VINA RESULT:      -6.6      2.280      3.145
REMARK  1 active torsions:
REMARK  status: ('A' for Active; 'I' for Inactive)
REMARK    1  A    between atoms: C3_3  and  N15_15 
ROOT
ATOM      1  C1  PRL d          10.368  20.432  49.739  0.00  0.00    -0.069 A 
ATOM      2  C2  PRL d          10.645  21.390  48.856  0.00  0.00    -0.057 A 
ATOM      3  C3  PRL d           9.864  22.603  48.771  0.00  0.00     0.028 A 
ATOM      4  C4  PRL d           8.794  22.746  49.634  0.00  0.00    -0.029 A 
ATOM      5  C5  PRL d           6.095  21.300  53.321  0.00  0.00    -0.029 A 
ATOM      6  C6  PRL d           5.765  20.408  54.326  0.00  0.00     0.028 A 
ATOM      7  C7  PRL d           6.541  19.190  54.436  0.00  0.00    -0.057 A 
ATOM      8  C8  PRL d           7.547  18.918  53.604  0.00  0.00    -0.069 A 
ATOM      9  C9  PRL d           8.957  19.632  51.650  0.00  0.00    -0.059 A 
ATOM     10  N10 PRL d           7.468  21.934  51.462  0.00  0.00    -0.247 NA
ATOM     11  C11 PRL d           8.495  21.768  50.559  0.00  0.00     0.070 A 
ATOM     12  C12 PRL d           7.918  19.834  52.544  0.00  0.00    -0.006 A 
ATOM     13  C13 PRL d           9.270  20.557  50.668  0.00  0.00    -0.006 A 
ATOM     14  C14 PRL d           7.131  21.039  52.452  0.00  0.00     0.070 A 
ATOM     15  N16 PRL d           4.762  20.664  55.198  0.00  0.00    -0.399 N 
ATOM     16  H1  PRL d          10.981  19.539  49.762  0.00  0.00     0.085 H 
ATOM     17  H2  PRL d          11.482  21.255  48.179  0.00  0.00     0.086 H 
ATOM     18  H3  PRL d           8.180  23.639  49.582  0.00  0.00     0.090 H 
ATOM     19  H4  PRL d           5.529  22.220  53.217  0.00  0.00     0.090 H 
ATOM     20  H5  PRL d           6.298  18.479  55.218  0.00  0.00     0.086 H 
ATOM     21  H6  PRL d           8.099  17.993  53.722  0.00  0.00     0.085 H 
ATOM     22  H7  PRL d           9.542  18.723  51.722  0.00  0.00     0.086 H 
ATOM     23  H10 PRL d           4.215  21.532  55.112  0.00  0.00     0.156 HD
ATOM     24  H11 PRL d           4.546  19.990  55.947  0.00  0.00     0.156 HD
ENDROOT
BRANCH   3  25
ATOM     25  N15 PRL d          10.234  23.592  47.926  0.00  0.00    -0.399 N 
ATOM     26  H8  PRL d           9.549  24.305  47.635  0.00  0.00     0.156 HD
ATOM     27  H9  PRL d          11.201  23.633  47.572  0.00  0.00     0.156 HD
ENDBRANCH   3  25
TORSDOF 1
ENDMDL
MODEL 5
REMARK VINA RESULT:      -6.4      3.451      3.861
REMARK  1 active torsions:
REMARK  status: ('A' for Active; 'I' for Inactive)
REMARK    1  A    between atoms: C3_3  and  N15_15 
ROOT
ATOM      1  C1  PRL d           8.622  22.748  50.054  0.00  0.00    -0.069 A 
ATOM      2  C2  PRL d           9.852  22.515  49.596  0.00  0.00    -0.057 A 
ATOM      3  C3  PRL d          10.257  21.212  49.118  0.00  0.00     0.028 A 
ATOM      4  C4  PRL d           9.328  20.190  49.161  0.00  0.00    -0.029 A 
ATOM      5  C5  PRL d           4.911  18.499  49.937  0.00  0.00    -0.029 A 
ATOM      6  C6  PRL d           3.589  18.648  50.318  0.00  0.00     0.028 A 
ATOM      7  C7  PRL d           3.158  19.947  50.790  0.00  0.00    -0.057 A 
ATOM      8  C8  PRL d           3.996  20.983  50.862  0.00  0.00    -0.069 A 
ATOM      9  C9  PRL d           6.310  21.889  50.500  0.00  0.00    -0.059 A 
ATOM     10  N10 PRL d           7.103  19.413  49.610  0.00  0.00    -0.247 NA
ATOM     11  C11 PRL d           8.049  20.413  49.625  0.00  0.00     0.070 A 
ATOM     12  C12 PRL d           5.384  20.859  50.469  0.00  0.00    -0.006 A 
ATOM     13  C13 PRL d           7.622  21.709  50.093  0.00  0.00    -0.006 A 
ATOM     14  C14 PRL d           5.791  19.557  50.004  0.00  0.00     0.070 A 
ATOM     15  N16 PRL d           2.711  17.621  50.238  0.00  0.00    -0.399 N 
ATOM     16  H1  PRL d           8.367  23.742  50.404  0.00  0.00     0.085 H 
ATOM     17  H2  PRL d          10.570  23.327  49.581  0.00  0.00     0.086 H 
ATOM     18  H3  PRL d           9.609  19.198  48.824  0.00  0.00     0.090 H 
ATOM     19  H4  PRL d           5.259  17.536  49.580  0.00  0.00     0.090 H 
ATOM     20  H5  PRL d           2.125  20.082  51.093  0.00  0.00     0.086 H 
ATOM     21  H6  PRL d           3.629  21.937  51.224  0.00  0.00     0.085 H 
ATOM     22  H7  PRL d           5.999  22.865  50.854  0.00  0.00     0.086 H 
ATOM     23  H10 PRL d           3.026  16.699  49.902  0.00  0.00     0.156 HD
ATOM     24  H11 PRL d           1.728  17.761  50.514  0.00  0.00     0.156 HD
ENDROOT
BRANCH   3  25
ATOM     25  N15 PRL d          11.483  21.039  48.575  0.00  0.00    -0.399 N 
ATOM     26  H8  PRL d          11.587  20.963  47.553  0.00  0.00     0.156 HD
ATOM     27  H9  PRL d          12.313  20.983  49.182  0.00  0.00     0.156 HD
ENDBRANCH   3  25
TORSDOF 1
ENDMDL
MODEL 6
REMARK VINA RESULT:      -6.3      3.102      4.505
REMARK  1 active torsions:
REMARK  status: ('A' for Active; 'I' for Inactive)
REMARK    1  A    between atoms: C3_3  and  N15_15 
ROOT
ATOM      1  C1  PRL d           8.536  18.473  51.112  0.00  0.00    -0.069 A 
ATOM      2  C2  PRL d           9.312  18.909  50.120  0.00  0.00    -0.057 A 
ATOM      3  C3  PRL d           9.735  20.289  50.029  0.00  0.00     0.028 A 
ATOM      4  C4  PRL d           9.298  21.166  51.003  0.00  0.00    -0.029 A 
ATOM      5  C5  PRL d           7.039  22.162  55.111  0.00  0.00    -0.029 A 
ATOM      6  C6  PRL d           6.297  21.803  56.223  0.00  0.00     0.028 A 
ATOM      7  C7  PRL d           5.872  20.424  56.341  0.00  0.00    -0.057 A 
ATOM      8  C8  PRL d           6.175  19.512  55.416  0.00  0.00    -0.069 A 
ATOM      9  C9  PRL d           7.319  18.967  53.247  0.00  0.00    -0.059 A 
ATOM     10  N10 PRL d           8.113  21.590  53.046  0.00  0.00    -0.247 NA
ATOM     11  C11 PRL d           8.500  20.732  52.040  0.00  0.00     0.070 A 
ATOM     12  C12 PRL d           6.951  19.857  54.243  0.00  0.00    -0.006 A 
ATOM     13  C13 PRL d           8.078  19.357  52.156  0.00  0.00    -0.006 A 
ATOM     14  C14 PRL d           7.362  21.235  54.145  0.00  0.00     0.070 A 
ATOM     15  N16 PRL d           5.990  22.701  57.187  0.00  0.00    -0.399 N 
ATOM     16  H1  PRL d           8.243  17.431  51.135  0.00  0.00     0.085 H 
ATOM     17  H2  PRL d           9.636  18.208  49.359  0.00  0.00     0.086 H 
ATOM     18  H3  PRL d           9.586  22.210  50.951  0.00  0.00     0.090 H 
ATOM     19  H4  PRL d           7.370  23.189  54.998  0.00  0.00     0.090 H 
ATOM     20  H5  PRL d           5.290  20.124  57.206  0.00  0.00     0.086 H 
ATOM     21  H6  PRL d           5.832  18.492  55.545  0.00  0.00     0.085 H 
ATOM     22  H7  PRL d           7.003  17.933  53.324  0.00  0.00     0.086 H 
ATOM     23  H10 PRL d           6.297  23.681  57.096  0.00  0.00     0.156 HD
ATOM     24  H11 PRL d           5.450  22.406  58.013  0.00  0.00     0.156 HD
ENDROOT
BRANCH   3  25
ATOM     25  N15 PRL d          10.599  20.672  49.061  0.00  0.00    -0.399 N 
ATOM     26  H8  PRL d          10.999  19.971  48.421  0.00  0.00     0.156 HD
ATOM     27  H9  PRL d          10.858  21.664  48.964  0.00  0.00     0.156 HD
ENDBRANCH   3  25
TORSDOF 1
ENDMDL
MODEL 7
REMARK VINA RESULT:      -6.2      3.209      6.244
REMARK  1 active torsions:
REMARK  status: ('A' for Active; 'I' for Inactive)
REMARK    1  A    between atoms: C3_3  and  N15_15 
ROOT
ATOM      1  C1  PRL d           6.168  19.573  55.418  0.00  0.00    -0.069 A 
ATOM      2  C2  PRL d           5.833  20.402  56.407  0.00  0.00    -0.057 A 
ATOM      3  C3  PRL d           6.233  21.791  56.410  0.00  0.00     0.028 A 
ATOM      4  C4  PRL d           6.997  22.248  55.353  0.00  0.00    -0.029 A 
ATOM      5  C5  PRL d           9.103  21.682  51.085  0.00  0.00    -0.029 A 
ATOM      6  C6  PRL d           9.441  20.932  49.972  0.00  0.00     0.028 A 
ATOM      7  C7  PRL d           9.042  19.540  49.942  0.00  0.00    -0.057 A 
ATOM      8  C8  PRL d           8.367  18.980  50.947  0.00  0.00    -0.069 A 
ATOM      9  C9  PRL d           7.285  19.236  53.200  0.00  0.00    -0.059 A 
ATOM     10  N10 PRL d           8.057  21.873  53.233  0.00  0.00    -0.247 NA
ATOM     11  C11 PRL d           7.349  21.407  54.318  0.00  0.00     0.070 A 
ATOM     12  C12 PRL d           7.997  19.739  52.123  0.00  0.00    -0.006 A 
ATOM     13  C13 PRL d           6.948  20.021  54.290  0.00  0.00    -0.006 A 
ATOM     14  C14 PRL d           8.407  21.122  52.133  0.00  0.00     0.070 A 
ATOM     15  N16 PRL d          10.108  21.477  48.929  0.00  0.00    -0.399 N 
ATOM     16  H1  PRL d           5.847  18.540  55.463  0.00  0.00     0.085 H 
ATOM     17  H2  PRL d           5.243  20.023  57.233  0.00  0.00     0.086 H 
ATOM     18  H3  PRL d           7.325  23.281  55.337  0.00  0.00     0.090 H 
ATOM     19  H4  PRL d           9.391  22.727  51.132  0.00  0.00     0.090 H 
ATOM     20  H5  PRL d           9.298  18.937  49.078  0.00  0.00     0.086 H 
ATOM     21  H6  PRL d           8.091  17.934  50.883  0.00  0.00     0.085 H 
ATOM     22  H7  PRL d           6.984  18.194  53.190  0.00  0.00     0.086 H 
ATOM     23  H10 PRL d          10.389  22.468  48.958  0.00  0.00     0.156 HD
ATOM     24  H11 PRL d          10.335  20.901  48.105  0.00  0.00     0.156 HD
ENDROOT
BRANCH   3  25
ATOM     25  N15 PRL d           5.794  22.623  57.382  0.00  0.00    -0.399 N 
ATOM     26  H8  PRL d           4.831  22.536  57.738  0.00  0.00     0.156 HD
ATOM     27  H9  PRL d           6.422  23.343  57.767  0.00  0.00     0.156 HD
ENDBRANCH   3  25
TORSDOF 1
ENDMDL
MODEL 8
REMARK VINA RESULT:      -6.1      3.529      5.787
REMARK  1 active torsions:
REMARK  status: ('A' for Active; 'I' for Inactive)
REMARK    1  A    between atoms: C3_3  and  N15_15 
ROOT
ATOM      1  C1  PRL d           3.887  21.040  50.922  0.00  0.00    -0.069 A 
ATOM      2  C2  PRL d           3.043  20.012  50.852  0.00  0.00    -0.057 A 
ATOM      3  C3  PRL d           3.435  18.734  50.302  0.00  0.00     0.028 A 
ATOM      4  C4  PRL d           4.726  18.603  49.827  0.00  0.00    -0.029 A 
ATOM      5  C5  PRL d           9.178  20.236  49.132  0.00  0.00    -0.029 A 
ATOM      6  C6  PRL d          10.157  21.210  49.225  0.00  0.00     0.028 A 
ATOM      7  C7  PRL d           9.790  22.494  49.783  0.00  0.00    -0.057 A 
ATOM      8  C8  PRL d           8.549  22.751  50.201  0.00  0.00    -0.069 A 
ATOM      9  C9  PRL d           6.198  21.936  50.544  0.00  0.00    -0.059 A 
ATOM     10  N10 PRL d           6.921  19.508  49.480  0.00  0.00    -0.247 NA
ATOM     11  C11 PRL d           5.616  19.653  49.895  0.00  0.00     0.070 A 
ATOM     12  C12 PRL d           7.504  21.752  50.119  0.00  0.00    -0.006 A 
ATOM     13  C13 PRL d           5.248  20.932  50.453  0.00  0.00    -0.006 A 
ATOM     14  C14 PRL d           7.892  20.481  49.559  0.00  0.00     0.070 A 
ATOM     15  N16 PRL d          11.429  20.973  48.828  0.00  0.00    -0.399 N 
ATOM     16  H1  PRL d           3.545  21.979  51.340  0.00  0.00     0.085 H 
ATOM     17  H2  PRL d           2.030  20.138  51.220  0.00  0.00     0.086 H 
ATOM     18  H3  PRL d           5.044  17.661  49.394  0.00  0.00     0.090 H 
ATOM     19  H4  PRL d           9.428  19.265  48.718  0.00  0.00     0.090 H 
ATOM     20  H5  PRL d          10.544  23.269  49.864  0.00  0.00     0.086 H 
ATOM     21  H6  PRL d           8.319  23.728  50.610  0.00  0.00     0.085 H 
ATOM     22  H7  PRL d           5.911  22.894  50.961  0.00  0.00     0.086 H 
ATOM     23  H10 PRL d          11.682  20.056  48.431  0.00  0.00     0.156 HD
ATOM     24  H11 PRL d          12.144  21.709  48.921  0.00  0.00     0.156 HD
ENDROOT
BRANCH   3  25
ATOM     25  N15 PRL d           2.578  17.688  50.336  0.00  0.00    -0.399 N 
ATOM     26  H8  PRL d           1.714  17.748  50.893  0.00  0.00     0.156 HD
ATOM     27  H9  PRL d           2.790  16.831  49.804  0.00  0.00     0.156 HD
ENDBRANCH   3  25
TORSDOF 1
ENDMDL
MODEL 9
REMARK VINA RESULT:      -6.0      6.615      7.052
REMARK  1 active torsions:
REMARK  status: ('A' for Active; 'I' for Inactive)
REMARK    1  A    between atoms: C3_3  and  N15_15 
ROOT
ATOM      1  C1  PRL d           2.044  19.273  45.986  0.00  0.00    -0.069 A 
ATOM      2  C2  PRL d           2.361  18.506  44.944  0.00  0.00    -0.057 A 
ATOM      3  C3  PRL d           3.506  17.623  44.963  0.00  0.00     0.028 A 
ATOM      4  C4  PRL d           4.289  17.603  46.102  0.00  0.00    -0.029 A 
ATOM      5  C5  PRL d           5.236  18.881  50.623  0.00  0.00    -0.029 A 
ATOM      6  C6  PRL d           4.956  19.576  51.787  0.00  0.00     0.028 A 
ATOM      7  C7  PRL d           3.807  20.457  51.795  0.00  0.00    -0.057 A 
ATOM      8  C8  PRL d           3.030  20.609  50.722  0.00  0.00    -0.069 A 
ATOM      9  C9  PRL d           2.528  19.986  48.340  0.00  0.00    -0.059 A 
ATOM     10  N10 PRL d           4.715  18.322  48.352  0.00  0.00    -0.247 NA
ATOM     11  C11 PRL d           3.974  18.385  47.193  0.00  0.00     0.070 A 
ATOM     12  C12 PRL d           3.295  19.895  49.490  0.00  0.00    -0.006 A 
ATOM     13  C13 PRL d           2.828  19.262  47.198  0.00  0.00    -0.006 A 
ATOM     14  C14 PRL d           4.445  19.024  49.505  0.00  0.00     0.070 A 
ATOM     15  N16 PRL d           5.715  19.428  52.898  0.00  0.00    -0.399 N 
ATOM     16  H1  PRL d           1.177  19.920  45.923  0.00  0.00     0.085 H 
ATOM     17  H2  PRL d           1.742  18.544  44.056  0.00  0.00     0.086 H 
ATOM     18  H3  PRL d           5.164  16.963  46.139  0.00  0.00     0.090 H 
ATOM     19  H4  PRL d           6.091  18.215  50.591  0.00  0.00     0.090 H 
ATOM     20  H5  PRL d           3.572  21.009  52.698  0.00  0.00     0.086 H 
ATOM     21  H6  PRL d           2.181  21.282  50.772  0.00  0.00     0.085 H 
ATOM     22  H7  PRL d           1.668  20.645  48.334  0.00  0.00     0.086 H 
ATOM     23  H10 PRL d           6.531  18.799  52.884  0.00  0.00     0.156 HD
ATOM     24  H11 PRL d           5.477  19.944  53.757  0.00  0.00     0.156 HD
ENDROOT
BRANCH   3  25
ATOM     25  N15 PRL d           3.741  16.791  43.923  0.00  0.00    -0.399 N 
ATOM     26  H8  PRL d           3.051  16.067  43.678  0.00  0.00     0.156 HD
ATOM     27  H9  PRL d           4.609  16.882  43.376  0.00  0.00     0.156 HD
ENDBRANCH   3  25
TORSDOF 1
ENDMDL
MODEL 10
REMARK VINA RESULT:      -5.9      6.573      7.836
REMARK  1 active torsions:
REMARK  status: ('A' for Active; 'I' for Inactive)
REMARK    1  A    between atoms: C3_3  and  N15_15 
ROOT
ATOM      1  C1  PRL d           3.062  20.640  50.779  0.00  0.00    -0.069 A 
ATOM      2  C2  PRL d           3.872  20.532  51.831  0.00  0.00    -0.057 A 
ATOM      3  C3  PRL d           5.005  19.633  51.836  0.00  0.00     0.028 A 
ATOM      4  C4  PRL d           5.225  18.864  50.709  0.00  0.00    -0.029 A 
ATOM      5  C5  PRL d           4.259  17.576  46.195  0.00  0.00    -0.029 A 
ATOM      6  C6  PRL d           3.529  17.664  45.022  0.00  0.00     0.028 A 
ATOM      7  C7  PRL d           2.397  18.566  44.991  0.00  0.00    -0.057 A 
ATOM      8  C8  PRL d           2.051  19.298  46.051  0.00  0.00    -0.069 A 
ATOM      9  C9  PRL d           2.510  19.967  48.429  0.00  0.00    -0.059 A 
ATOM     10  N10 PRL d           4.653  18.247  48.462  0.00  0.00    -0.247 NA
ATOM     11  C11 PRL d           4.401  18.966  49.609  0.00  0.00     0.070 A 
ATOM     12  C12 PRL d           2.796  19.229  47.291  0.00  0.00    -0.006 A 
ATOM     13  C13 PRL d           3.274  19.867  49.580  0.00  0.00    -0.006 A 
ATOM     14  C14 PRL d           3.918  18.324  47.300  0.00  0.00     0.070 A 
ATOM     15  N16 PRL d           3.867  16.948  43.924  0.00  0.00    -0.399 N 
ATOM     16  H1  PRL d           2.224  21.326  50.825  0.00  0.00     0.085 H 
ATOM     17  H2  PRL d           3.677  21.136  52.710  0.00  0.00     0.086 H 
ATOM     18  H3  PRL d           6.058  18.169  50.690  0.00  0.00     0.090 H 
ATOM     19  H4  PRL d           5.112  16.908  46.244  0.00  0.00     0.090 H 
ATOM     20  H5  PRL d           1.813  18.648  44.081  0.00  0.00     0.086 H 
ATOM     21  H6  PRL d           1.193  19.958  45.983  0.00  0.00     0.085 H 
ATOM     22  H7  PRL d           1.663  20.643  48.418  0.00  0.00     0.086 H 
ATOM     23  H10 PRL d           4.674  16.309  43.955  0.00  0.00     0.156 HD
ATOM     24  H11 PRL d           3.317  17.043  43.058  0.00  0.00     0.156 HD
ENDROOT
BRANCH   3  25
ATOM     25  N15 PRL d           5.858  19.621  52.885  0.00  0.00    -0.399 N 
ATOM     26  H8  PRL d           6.322  18.744  53.161  0.00  0.00     0.156 HD
ATOM     27  H9  PRL d           6.045  20.489  53.407  0.00  0.00     0.156 HD
ENDBRANCH   3  25
TORSDOF 1
ENDMDL
